<?xml version="1.0" encoding="UTF-8"?>

<!-- generated on 12/05/16 12:01:49 by SUMO netconvert Version 0.28.0
<?xml version="1.0" encoding="UTF-8"?>

<configuration xmlns:xsi="http://www.w3.org/2001/XMLSchema-instance" xsi:noNamespaceSchemaLocation="http://sumo.dlr.de/xsd/netconvertConfiguration.xsd">

    <input>
        <osm-files value="mapa.osm"/>
    </input>

    <output>
        <output-file value="mapa2.net.xml"/>
    </output>

    <projection>
        <proj.utm value="true"/>
    </projection>

    <tls_building>
        <tls.join value="true"/>
    </tls_building>

    <ramp_guessing>
        <ramps.guess value="true"/>
    </ramp_guessing>

    <edge_removal>
        <remove-edges.by-vclass value="hov,taxi,bus,delivery,transport,lightrail,cityrail,rail_slow,rail_fast,motorcycle,bicycle,pedestrian"/>
        <remove-edges.isolated value="true"/>
    </edge_removal>

    <processing>
        <geometry.remove value="true"/>
    </processing>

    <report>
        <verbose value="true"/>
    </report>

</configuration>
-->

<net version="0.27" xmlns:xsi="http://www.w3.org/2001/XMLSchema-instance" xsi:noNamespaceSchemaLocation="http://sumo.dlr.de/xsd/net_file.xsd">

    <location netOffset="-714012.47,-5483517.01" convBoundary="0.00,0.00,2789.07,2376.45" origBoundary="17.692117,49.410551,18.167080,49.546009" projParameter="+proj=utm +zone=33 +ellps=WGS84 +datum=WGS84 +units=m +no_defs"/>

    <type id="highway.bridleway" priority="1" numLanes="1" speed="2.78" allow="pedestrian" oneway="1" width="2.00"/>
    <type id="highway.bus_guideway" priority="1" numLanes="1" speed="8.33" allow="bus" oneway="1"/>
    <type id="highway.cycleway" priority="1" numLanes="1" speed="5.56" allow="bicycle" oneway="0" width="1.00"/>
    <type id="highway.footway" priority="1" numLanes="1" speed="2.78" allow="pedestrian" oneway="1" width="2.00"/>
    <type id="highway.ford" priority="1" numLanes="1" speed="2.78" allow="army" oneway="0"/>
    <type id="highway.living_street" priority="3" numLanes="1" speed="2.78" disallow="tram rail_urban rail rail_electric ship" oneway="0"/>
    <type id="highway.motorway" priority="13" numLanes="2" speed="44.44" allow="private emergency authority army vip passenger hov taxi bus coach delivery truck trailer motorcycle evehicle custom1 custom2" oneway="1"/>
    <type id="highway.motorway_link" priority="12" numLanes="1" speed="22.22" allow="private emergency authority army vip passenger hov taxi bus coach delivery truck trailer motorcycle evehicle custom1 custom2" oneway="1"/>
    <type id="highway.path" priority="1" numLanes="1" speed="2.78" allow="bicycle pedestrian" oneway="1" width="2.00"/>
    <type id="highway.pedestrian" priority="1" numLanes="1" speed="2.78" allow="pedestrian" oneway="1" width="2.00"/>
    <type id="highway.primary" priority="9" numLanes="2" speed="27.78" disallow="tram rail_urban rail rail_electric ship" oneway="0"/>
    <type id="highway.primary_link" priority="8" numLanes="1" speed="22.22" disallow="tram rail_urban rail rail_electric ship" oneway="0"/>
    <type id="highway.raceway" priority="14" numLanes="2" speed="83.33" allow="vip" oneway="0"/>
    <type id="highway.residential" priority="4" numLanes="1" speed="13.89" disallow="tram rail_urban rail rail_electric ship" oneway="0"/>
    <type id="highway.secondary" priority="7" numLanes="2" speed="27.78" disallow="tram rail_urban rail rail_electric ship" oneway="0"/>
    <type id="highway.secondary_link" priority="6" numLanes="1" speed="22.22" disallow="tram rail_urban rail rail_electric ship" oneway="0"/>
    <type id="highway.service" priority="2" numLanes="1" speed="5.56" allow="delivery bicycle pedestrian" oneway="0"/>
    <type id="highway.services" priority="1" numLanes="1" speed="8.33" disallow="tram rail_urban rail rail_electric ship" oneway="0"/>
    <type id="highway.stairs" priority="1" numLanes="1" speed="1.39" allow="pedestrian" oneway="1" width="2.00"/>
    <type id="highway.step" priority="1" numLanes="1" speed="1.39" allow="pedestrian" oneway="1" width="2.00"/>
    <type id="highway.steps" priority="1" numLanes="1" speed="1.39" allow="pedestrian" oneway="1" width="2.00"/>
    <type id="highway.tertiary" priority="6" numLanes="1" speed="22.22" disallow="tram rail_urban rail rail_electric ship" oneway="0"/>
    <type id="highway.tertiary_link" priority="5" numLanes="1" speed="22.22" disallow="tram rail_urban rail rail_electric ship" oneway="0"/>
    <type id="highway.track" priority="1" numLanes="1" speed="5.56" disallow="tram rail_urban rail rail_electric ship" oneway="0"/>
    <type id="highway.trunk" priority="11" numLanes="2" speed="27.78" disallow="tram rail_urban rail rail_electric bicycle pedestrian ship" oneway="0"/>
    <type id="highway.trunk_link" priority="10" numLanes="1" speed="22.22" disallow="tram rail_urban rail rail_electric bicycle pedestrian ship" oneway="0"/>
    <type id="highway.unclassified" priority="5" numLanes="1" speed="13.89" disallow="tram rail_urban rail rail_electric ship" oneway="0"/>
    <type id="highway.unsurfaced" priority="1" numLanes="1" speed="8.33" disallow="tram rail_urban rail rail_electric ship" oneway="0"/>
    <type id="railway.light_rail" priority="15" numLanes="1" speed="27.78" allow="rail_urban" oneway="1"/>
    <type id="railway.preserved" priority="15" numLanes="1" speed="27.78" allow="rail" oneway="1"/>
    <type id="railway.rail" priority="15" numLanes="1" speed="83.33" allow="rail rail_electric" oneway="1"/>
    <type id="railway.subway" priority="15" numLanes="1" speed="27.78" allow="rail_urban" oneway="1"/>
    <type id="railway.tram" priority="15" numLanes="1" speed="13.89" allow="tram" oneway="1"/>

    <edge id=":-25852_0" function="internal">
        <lane id=":-25852_0_0" index="0" disallow="tram rail_urban rail rail_electric ship" speed="13.89" length="7.07" shape="1068.03,1382.96 1067.90,1384.38 1068.22,1385.93 1068.99,1387.63 1070.21,1389.46"/>
    </edge>
    <edge id=":-25852_1" function="internal">
        <lane id=":-25852_1_0" index="0" disallow="tram rail_urban rail rail_electric ship" speed="13.89" length="7.56" shape="1068.03,1382.96 1066.10,1390.27"/>
        <lane id=":-25852_1_1" index="1" disallow="tram rail_urban rail rail_electric ship" speed="13.89" length="7.56" shape="1064.84,1382.12 1062.91,1389.43"/>
    </edge>
    <edge id=":-25861_0" function="internal">
        <lane id=":-25861_0_0" index="0" disallow="tram rail_urban rail rail_electric ship" speed="13.89" length="5.56" shape="1068.38,1395.40 1066.72,1395.64 1065.44,1396.19 1064.53,1397.03 1064.00,1398.17"/>
    </edge>
    <edge id=":-25861_1" function="internal">
        <lane id=":-25861_1_0" index="0" disallow="tram rail_urban rail rail_electric ship" speed="13.89" length="6.36" shape="1065.63,1392.02 1064.00,1398.17"/>
        <lane id=":-25861_1_1" index="1" disallow="tram rail_urban rail rail_electric ship" speed="13.89" length="6.36" shape="1062.45,1391.17 1060.81,1397.32"/>
    </edge>
    <edge id=":1264747713_0" function="internal">
        <lane id=":1264747713_0_0" index="0" disallow="tram rail_urban rail rail_electric ship" speed="13.89" length="10.76" shape="469.77,505.08 468.39,507.92 466.72,509.55 465.06,511.12 463.69,513.78"/>
    </edge>
    <edge id=":1264747713_1" function="internal">
        <lane id=":1264747713_1_0" index="0" disallow="tram rail_urban rail rail_electric ship" speed="13.89" length="4.87" shape="466.60,504.15 465.08,507.04 463.70,507.86"/>
    </edge>
    <edge id=":1264747713_2" function="internal">
        <lane id=":1264747713_2_0" index="0" disallow="tram rail_urban rail rail_electric ship" speed="13.89" length="2.41" shape="466.60,504.15 465.46,505.10 464.55,505.26"/>
    </edge>
    <edge id=":1264747713_9" function="internal">
        <lane id=":1264747713_9_0" index="0" speed="13.89" length="9.15" shape="463.70,507.86 462.63,508.50 459.25,508.53 454.95,507.14"/>
    </edge>
    <edge id=":1264747713_10" function="internal">
        <lane id=":1264747713_10_0" index="0" speed="13.89" length="2.41" shape="464.55,505.26 463.88,504.63 463.44,503.21"/>
    </edge>
    <edge id=":1264747713_3" function="internal">
        <lane id=":1264747713_3_0" index="0" disallow="tram rail_urban rail rail_electric ship" speed="13.89" length="5.16" shape="456.29,504.12 457.68,504.51 458.81,504.33 459.67,503.59 460.27,502.28"/>
    </edge>
    <edge id=":1264747713_4" function="internal">
        <lane id=":1264747713_4_0" index="0" disallow="tram rail_urban rail rail_electric ship" speed="13.89" length="13.34" shape="456.29,504.12 460.18,506.25 462.71,508.56 463.88,511.08 463.69,513.78"/>
    </edge>
    <edge id=":1264747713_5" function="internal">
        <lane id=":1264747713_5_0" index="0" disallow="tram rail_urban rail rail_electric ship" speed="13.89" length="4.82" shape="456.29,504.12 457.09,505.38 457.13,506.30 456.42,506.88 454.95,507.14"/>
    </edge>
    <edge id=":1264747713_6" function="internal">
        <lane id=":1264747713_6_0" index="0" disallow="tram rail_urban rail rail_electric ship" speed="13.89" length="8.55" shape="460.54,512.80 460.52,511.39 459.58,509.98 457.72,508.56 454.95,507.14"/>
    </edge>
    <edge id=":1264747713_7" function="internal">
        <lane id=":1264747713_7_0" index="0" disallow="tram rail_urban rail rail_electric ship" speed="13.89" length="10.01" shape="460.54,512.80 463.44,503.21"/>
    </edge>
    <edge id=":1264747713_8" function="internal">
        <lane id=":1264747713_8_0" index="0" disallow="tram rail_urban rail rail_electric ship" speed="13.89" length="2.73" shape="460.54,512.80 461.70,511.86 462.61,511.71 462.84,511.93"/>
    </edge>
    <edge id=":1264747713_11" function="internal">
        <lane id=":1264747713_11_0" index="0" speed="13.89" length="2.09" shape="462.84,511.93 463.27,512.35 463.69,513.78"/>
    </edge>
    <edge id=":1328533357_0" function="internal">
        <lane id=":1328533357_0_0" index="0" disallow="tram rail_urban rail rail_electric ship" speed="13.89" length="5.02" shape="553.54,613.32 552.23,612.92 551.10,613.05 550.16,613.69 549.40,614.84"/>
    </edge>
    <edge id=":1328533357_1" function="internal">
        <lane id=":1328533357_1_0" index="0" disallow="tram rail_urban rail rail_electric ship" speed="13.89" length="9.49" shape="553.54,613.32 544.94,609.30"/>
    </edge>
    <edge id=":1328533357_2" function="internal">
        <lane id=":1328533357_2_0" index="0" disallow="tram rail_urban rail rail_electric ship" speed="13.89" length="2.41" shape="553.54,613.32 552.76,612.05 552.73,611.13"/>
    </edge>
    <edge id=":1328533357_9" function="internal">
        <lane id=":1328533357_9_0" index="0" speed="13.89" length="2.41" shape="552.73,611.13 553.45,610.55 554.92,610.32"/>
    </edge>
    <edge id=":1328533357_3" function="internal">
        <lane id=":1328533357_3_0" index="0" disallow="tram rail_urban rail rail_electric ship" speed="13.89" length="9.47" shape="546.34,606.32 554.92,610.32"/>
    </edge>
    <edge id=":1328533357_4" function="internal">
        <lane id=":1328533357_4_0" index="0" disallow="tram rail_urban rail rail_electric ship" speed="13.89" length="5.17" shape="546.34,606.32 548.71,607.87 550.01,609.81"/>
    </edge>
    <edge id=":1328533357_5" function="internal">
        <lane id=":1328533357_5_0" index="0" disallow="tram rail_urban rail rail_electric ship" speed="13.89" length="2.41" shape="546.34,606.32 547.11,607.59 547.13,608.51"/>
    </edge>
    <edge id=":1328533357_10" function="internal">
        <lane id=":1328533357_10_0" index="0" speed="13.89" length="5.17" shape="550.01,609.81 550.24,612.13 549.40,614.84"/>
    </edge>
    <edge id=":1328533357_11" function="internal">
        <lane id=":1328533357_11_0" index="0" speed="13.89" length="2.41" shape="547.13,608.51 546.41,609.08 544.94,609.30"/>
    </edge>
    <edge id=":1328533357_6" function="internal">
        <lane id=":1328533357_6_0" index="0" disallow="tram rail_urban rail rail_electric ship" speed="13.89" length="5.00" shape="546.42,613.43 546.82,612.12 546.71,610.99 546.08,610.06 544.94,609.30"/>
    </edge>
    <edge id=":1328533357_7" function="internal">
        <lane id=":1328533357_7_0" index="0" disallow="tram rail_urban rail rail_electric ship" speed="13.89" length="10.31" shape="546.42,613.43 547.97,611.07 549.91,609.76 552.23,609.51 554.92,610.32"/>
    </edge>
    <edge id=":1328533357_8" function="internal">
        <lane id=":1328533357_8_0" index="0" disallow="tram rail_urban rail rail_electric ship" speed="13.89" length="4.82" shape="546.42,613.43 547.69,612.66 548.61,612.64 549.18,613.37 549.40,614.84"/>
    </edge>
    <edge id=":1328533358_0" function="internal">
        <lane id=":1328533358_0_0" index="0" disallow="tram rail_urban rail rail_electric ship" speed="13.89" length="4.82" shape="514.04,690.80 512.77,691.58 511.85,691.61 511.28,690.88 511.05,689.41"/>
    </edge>
    <edge id=":1331959459_0" function="internal">
        <lane id=":1331959459_0_0" index="0" disallow="tram rail_urban rail rail_electric ship" speed="13.89" length="9.50" shape="1715.13,1241.00 1714.64,1231.52"/>
    </edge>
    <edge id=":1331959459_1" function="internal">
        <lane id=":1331959459_1_0" index="0" disallow="tram rail_urban rail rail_electric ship" speed="13.89" length="5.29" shape="1715.13,1241.00 1715.39,1238.17 1716.50,1236.10 1716.58,1236.05"/>
    </edge>
    <edge id=":1331959459_2" function="internal">
        <lane id=":1331959459_2_0" index="0" disallow="tram rail_urban rail rail_electric ship" speed="13.89" length="2.41" shape="1715.13,1241.00 1715.89,1239.72 1716.70,1239.27"/>
    </edge>
    <edge id=":1331959459_9" function="internal">
        <lane id=":1331959459_9_0" index="0" speed="13.89" length="5.09" shape="1716.58,1236.05 1718.45,1234.81 1721.25,1234.29"/>
    </edge>
    <edge id=":1331959459_10" function="internal">
        <lane id=":1331959459_10_0" index="0" speed="13.89" length="2.41" shape="1716.70,1239.27 1717.54,1239.64 1718.43,1240.83"/>
    </edge>
    <edge id=":1331959459_3" function="internal">
        <lane id=":1331959459_3_0" index="0" disallow="tram rail_urban rail rail_electric ship" speed="13.89" length="5.01" shape="1721.38,1237.59 1720.03,1237.84 1719.09,1238.47 1718.55,1239.46 1718.43,1240.83"/>
    </edge>
    <edge id=":1331959459_4" function="internal">
        <lane id=":1331959459_4_0" index="0" disallow="tram rail_urban rail rail_electric ship" speed="13.89" length="10.32" shape="1721.38,1237.59 1718.56,1237.31 1716.49,1236.20 1715.19,1234.27 1714.64,1231.52"/>
    </edge>
    <edge id=":1331959459_5" function="internal">
        <lane id=":1331959459_5_0" index="0" disallow="tram rail_urban rail rail_electric ship" speed="13.89" length="4.82" shape="1721.38,1237.59 1720.11,1236.82 1719.67,1236.01 1720.04,1235.17 1721.25,1234.29"/>
    </edge>
    <edge id=":1331959459_6" function="internal">
        <lane id=":1331959459_6_0" index="0" disallow="tram rail_urban rail rail_electric ship" speed="13.89" length="5.04" shape="1717.94,1231.34 1718.20,1232.68 1718.85,1233.62 1719.86,1234.16 1721.25,1234.29"/>
    </edge>
    <edge id=":1331959459_7" function="internal">
        <lane id=":1331959459_7_0" index="0" disallow="tram rail_urban rail rail_electric ship" speed="13.89" length="9.50" shape="1717.94,1231.34 1718.43,1240.83"/>
    </edge>
    <edge id=":1331959459_8" function="internal">
        <lane id=":1331959459_8_0" index="0" disallow="tram rail_urban rail rail_electric ship" speed="13.89" length="2.41" shape="1717.94,1231.34 1717.18,1232.62 1716.38,1233.08"/>
    </edge>
    <edge id=":1331959459_11" function="internal">
        <lane id=":1331959459_11_0" index="0" speed="13.89" length="2.41" shape="1716.38,1233.08 1715.53,1232.71 1714.64,1231.52"/>
    </edge>
    <edge id=":1331959462_0" function="internal">
        <lane id=":1331959462_0_0" index="0" disallow="tram rail_urban rail rail_electric ship" speed="13.89" length="4.82" shape="2076.33,1229.62 2077.60,1230.39 2078.04,1231.20 2077.66,1232.04 2076.46,1232.92"/>
    </edge>
    <edge id=":1341039838_0" function="internal">
        <lane id=":1341039838_0_0" index="0" disallow="tram rail_urban rail rail_electric ship" speed="13.89" length="5.08" shape="1971.07,509.77 1969.65,509.79 1968.58,510.24 1967.85,511.11 1967.46,512.42"/>
    </edge>
    <edge id=":1341039838_1" function="internal">
        <lane id=":1341039838_1_0" index="0" disallow="tram rail_urban rail rail_electric ship" speed="13.89" length="10.42" shape="1971.07,509.77 1968.30,509.02 1966.46,507.57 1965.54,505.41 1965.54,502.55"/>
    </edge>
    <edge id=":1341039838_2" function="internal">
        <lane id=":1341039838_2_0" index="0" disallow="tram rail_urban rail rail_electric ship" speed="13.89" length="4.82" shape="1971.07,509.77 1969.94,508.80 1969.63,507.93 1970.14,507.16 1971.47,506.50"/>
    </edge>
    <edge id=":1341039838_3" function="internal">
        <lane id=":1341039838_3_0" index="0" disallow="tram rail_urban rail rail_electric ship" speed="13.89" length="5.02" shape="1968.81,503.01 1968.81,504.39 1969.25,505.43 1970.14,506.13 1971.47,506.50"/>
    </edge>
    <edge id=":1341039838_4" function="internal">
        <lane id=":1341039838_4_0" index="0" disallow="tram rail_urban rail rail_electric ship" speed="13.89" length="9.50" shape="1968.81,503.01 1967.46,512.42"/>
    </edge>
    <edge id=":1341039838_5" function="internal">
        <lane id=":1341039838_5_0" index="0" disallow="tram rail_urban rail rail_electric ship" speed="13.89" length="2.41" shape="1968.81,503.01 1967.81,504.12 1966.94,504.41"/>
    </edge>
    <edge id=":1341039838_9" function="internal">
        <lane id=":1341039838_9_0" index="0" speed="13.89" length="2.41" shape="1966.94,504.41 1966.18,503.89 1965.54,502.55"/>
    </edge>
    <edge id=":1341039838_6" function="internal">
        <lane id=":1341039838_6_0" index="0" disallow="tram rail_urban rail rail_electric ship" speed="13.89" length="9.50" shape="1964.20,511.95 1965.54,502.55"/>
    </edge>
    <edge id=":1341039838_7" function="internal">
        <lane id=":1341039838_7_0" index="0" disallow="tram rail_urban rail rail_electric ship" speed="13.89" length="5.24" shape="1964.20,511.95 1964.99,509.27 1966.46,507.47 1966.56,507.42"/>
    </edge>
    <edge id=":1341039838_8" function="internal">
        <lane id=":1341039838_8_0" index="0" disallow="tram rail_urban rail rail_electric ship" speed="13.89" length="2.41" shape="1964.20,511.95 1965.19,510.84 1966.06,510.55"/>
    </edge>
    <edge id=":1341039838_10" function="internal">
        <lane id=":1341039838_10_0" index="0" speed="13.89" length="5.09" shape="1966.56,507.42 1968.62,506.54 1971.47,506.50"/>
    </edge>
    <edge id=":1341039838_11" function="internal">
        <lane id=":1341039838_11_0" index="0" speed="13.89" length="2.41" shape="1966.06,510.55 1966.82,511.08 1967.46,512.42"/>
    </edge>
    <edge id=":1341039839_0" function="internal">
        <lane id=":1341039839_0_0" index="0" disallow="tram rail_urban rail rail_electric ship" speed="13.89" length="9.50" shape="2096.51,518.92 2095.15,528.33"/>
    </edge>
    <edge id=":1341039839_1" function="internal">
        <lane id=":1341039839_1_0" index="0" disallow="tram rail_urban rail rail_electric ship" speed="13.89" length="5.23" shape="2096.51,518.92 2095.72,521.60 2094.24,523.40 2094.14,523.44"/>
    </edge>
    <edge id=":1341039839_2" function="internal">
        <lane id=":1341039839_2_0" index="0" disallow="tram rail_urban rail rail_electric ship" speed="13.89" length="2.41" shape="2096.51,518.92 2095.52,520.03 2094.64,520.32"/>
    </edge>
    <edge id=":1341039839_9" function="internal">
        <lane id=":1341039839_9_0" index="0" speed="13.89" length="5.10" shape="2094.14,523.44 2092.07,524.32 2089.22,524.37"/>
    </edge>
    <edge id=":1341039839_10" function="internal">
        <lane id=":1341039839_10_0" index="0" speed="13.89" length="2.41" shape="2094.64,520.32 2093.89,519.79 2093.25,518.45"/>
    </edge>
    <edge id=":1341039839_3" function="internal">
        <lane id=":1341039839_3_0" index="0" disallow="tram rail_urban rail rail_electric ship" speed="13.89" length="5.08" shape="2089.63,521.09 2091.05,521.07 2092.12,520.63 2092.85,519.75 2093.25,518.45"/>
    </edge>
    <edge id=":1341039839_4" function="internal">
        <lane id=":1341039839_4_0" index="0" disallow="tram rail_urban rail rail_electric ship" speed="13.89" length="10.43" shape="2089.63,521.09 2092.39,521.84 2094.24,523.30 2095.15,525.46 2095.15,528.33"/>
    </edge>
    <edge id=":1341039839_5" function="internal">
        <lane id=":1341039839_5_0" index="0" disallow="tram rail_urban rail rail_electric ship" speed="13.89" length="4.82" shape="2089.63,521.09 2090.76,522.06 2091.06,522.93 2090.55,523.70 2089.22,524.37"/>
    </edge>
    <edge id=":1341039839_6" function="internal">
        <lane id=":1341039839_6_0" index="0" disallow="tram rail_urban rail rail_electric ship" speed="13.89" length="5.02" shape="2091.89,527.85 2091.89,526.47 2091.44,525.43 2090.56,524.73 2089.22,524.37"/>
    </edge>
    <edge id=":1341039839_7" function="internal">
        <lane id=":1341039839_7_0" index="0" disallow="tram rail_urban rail rail_electric ship" speed="13.89" length="9.50" shape="2091.89,527.85 2093.25,518.45"/>
    </edge>
    <edge id=":1341039839_8" function="internal">
        <lane id=":1341039839_8_0" index="0" disallow="tram rail_urban rail rail_electric ship" speed="13.89" length="2.41" shape="2091.89,527.85 2092.88,526.75 2093.75,526.46"/>
    </edge>
    <edge id=":1341039839_11" function="internal">
        <lane id=":1341039839_11_0" index="0" speed="13.89" length="2.41" shape="2093.75,526.46 2094.51,526.98 2095.15,528.33"/>
    </edge>
    <edge id=":1385711931_0" function="internal">
        <lane id=":1385711931_0_0" index="0" disallow="tram rail_urban rail rail_electric ship" speed="2.78" length="5.47" shape="1158.04,578.73 1156.89,579.04 1155.87,579.73 1154.98,580.81 1154.22,582.27"/>
    </edge>
    <edge id=":1385711931_1" function="internal">
        <lane id=":1385711931_1_0" index="0" disallow="tram rail_urban rail rail_electric ship" speed="2.78" length="8.80" shape="1158.04,578.73 1155.46,578.88 1153.68,578.67 1151.97,578.03 1149.63,576.90"/>
    </edge>
    <edge id=":1385711931_2" function="internal">
        <lane id=":1385711931_2_0" index="0" disallow="tram rail_urban rail rail_electric ship" speed="2.78" length="4.82" shape="1158.04,578.73 1156.72,578.04 1156.22,577.26 1156.55,576.40 1157.69,575.45"/>
    </edge>
    <edge id=":1385711931_3" function="internal">
        <lane id=":1385711931_3_0" index="0" disallow="tram rail_urban rail rail_electric ship" speed="2.78" length="6.95" shape="1151.06,573.93 1152.91,574.84 1154.26,575.36 1155.66,575.55 1157.69,575.45"/>
    </edge>
    <edge id=":1385711931_4" function="internal">
        <lane id=":1385711931_4_0" index="0" disallow="tram rail_urban rail rail_electric ship" speed="2.78" length="10.06" shape="1151.06,573.93 1153.33,575.46 1154.62,577.35 1154.91,579.63 1154.22,582.27"/>
    </edge>
    <edge id=":1385711931_5" function="internal">
        <lane id=":1385711931_5_0" index="0" disallow="tram rail_urban rail rail_electric ship" speed="2.78" length="4.82" shape="1151.06,573.93 1151.82,575.21 1151.83,576.13 1151.10,576.70 1149.63,576.90"/>
    </edge>
    <edge id=":1385711931_6" function="internal">
        <lane id=":1385711931_6_0" index="0" disallow="tram rail_urban rail rail_electric ship" speed="2.78" length="4.94" shape="1151.17,581.00 1151.51,579.70 1151.37,578.58 1150.74,577.65 1149.63,576.90"/>
    </edge>
    <edge id=":1385711931_7" function="internal">
        <lane id=":1385711931_7_0" index="0" disallow="tram rail_urban rail rail_electric ship" speed="2.78" length="9.01" shape="1151.17,581.00 1152.39,578.72 1153.88,577.04 1155.65,575.95 1157.69,575.45"/>
    </edge>
    <edge id=":1385711931_8" function="internal">
        <lane id=":1385711931_8_0" index="0" disallow="tram rail_urban rail rail_electric ship" speed="2.78" length="4.82" shape="1151.17,581.00 1152.41,580.17 1153.33,580.11 1153.93,580.81 1154.22,582.27"/>
    </edge>
    <edge id=":1385711938_0" function="internal">
        <lane id=":1385711938_0_0" index="0" disallow="tram rail_urban rail rail_electric ship" speed="8.33" length="5.09" shape="1071.73,528.89 1070.89,527.75 1069.90,527.19 1068.76,527.21 1067.48,527.79"/>
    </edge>
    <edge id=":1385711938_1" function="internal">
        <lane id=":1385711938_1_0" index="0" disallow="tram rail_urban rail rail_electric ship" speed="8.33" length="10.05" shape="1071.73,528.89 1070.67,526.22 1070.50,523.82 1071.22,521.66 1072.84,519.76"/>
    </edge>
    <edge id=":1385711938_2" function="internal">
        <lane id=":1385711938_2_0" index="0" disallow="tram rail_urban rail rail_electric ship" speed="2.78" length="4.82" shape="1071.73,528.89 1071.87,527.40 1072.40,526.65 1073.32,526.62 1074.63,527.32"/>
    </edge>
    <edge id=":1385711938_3" function="internal">
        <lane id=":1385711938_3_0" index="0" disallow="tram rail_urban rail rail_electric ship" speed="8.33" length="5.53" shape="1074.99,522.26 1074.18,523.26 1073.85,524.43 1074.00,525.79 1074.63,527.32"/>
    </edge>
    <edge id=":1385711938_4" function="internal">
        <lane id=":1385711938_4_0" index="0" disallow="tram rail_urban rail rail_electric ship" speed="13.89" length="9.33" shape="1074.99,522.26 1067.48,527.79"/>
    </edge>
    <edge id=":1385711938_5" function="internal">
        <lane id=":1385711938_5_0" index="0" disallow="tram rail_urban rail rail_electric ship" speed="13.89" length="2.59" shape="1074.99,522.26 1073.52,522.44 1072.67,522.08 1072.62,521.91"/>
    </edge>
    <edge id=":1385711938_9" function="internal">
        <lane id=":1385711938_9_0" index="0" speed="13.89" length="2.23" shape="1072.62,521.91 1072.44,521.19 1072.84,519.76"/>
    </edge>
    <edge id=":1385711938_6" function="internal">
        <lane id=":1385711938_6_0" index="0" disallow="tram rail_urban rail rail_electric ship" speed="13.89" length="8.88" shape="1065.69,525.02 1072.84,519.76"/>
    </edge>
    <edge id=":1385711938_7" function="internal">
        <lane id=":1385711938_7_0" index="0" disallow="tram rail_urban rail rail_electric ship" speed="8.33" length="4.83" shape="1065.69,525.02 1068.39,523.78 1070.26,523.76"/>
    </edge>
    <edge id=":1385711938_8" function="internal">
        <lane id=":1385711938_8_0" index="0" disallow="tram rail_urban rail rail_electric ship" speed="13.89" length="2.41" shape="1065.69,525.02 1067.18,525.04 1067.97,525.51"/>
    </edge>
    <edge id=":1385711938_10" function="internal">
        <lane id=":1385711938_10_0" index="0" speed="8.33" length="5.88" shape="1070.26,523.76 1070.78,523.75 1072.86,524.93 1074.63,527.32"/>
    </edge>
    <edge id=":1385711938_11" function="internal">
        <lane id=":1385711938_11_0" index="0" speed="13.89" length="2.41" shape="1067.97,525.51 1068.07,526.43 1067.48,527.79"/>
    </edge>
    <edge id=":1385712014_0" function="internal">
        <lane id=":1385712014_0_0" index="0" disallow="tram rail_urban rail rail_electric ship" speed="5.56" length="5.96" shape="1234.64,638.96 1233.16,638.04 1232.30,637.11 1231.42,636.24 1229.86,635.54"/>
    </edge>
    <edge id=":1385712014_1" function="internal">
        <lane id=":1385712014_1_0" index="0" disallow="tram rail_urban rail rail_electric ship" speed="8.33" length="7.51" shape="1234.64,638.96 1233.75,638.15 1233.36,636.71 1233.49,634.66 1234.13,631.98"/>
    </edge>
    <edge id=":1385712014_2" function="internal">
        <lane id=":1385712014_2_0" index="0" disallow="tram rail_urban rail rail_electric ship" speed="8.33" length="4.82" shape="1234.64,638.96 1233.84,637.71 1233.79,636.79 1234.50,636.20 1235.96,635.94"/>
    </edge>
    <edge id=":1385743859_0" function="internal">
        <lane id=":1385743859_0_0" index="0" disallow="tram rail_urban rail rail_electric ship" speed="13.89" length="9.62" shape="1270.69,711.42 1269.80,721.00"/>
    </edge>
    <edge id=":1385743859_1" function="internal">
        <lane id=":1385743859_1_0" index="0" disallow="tram rail_urban rail rail_electric ship" speed="13.89" length="5.44" shape="1270.69,711.42 1269.94,714.53 1268.53,716.28"/>
    </edge>
    <edge id=":1385743859_2" function="internal">
        <lane id=":1385743859_2_0" index="0" disallow="tram rail_urban rail rail_electric ship" speed="13.89" length="2.41" shape="1270.69,711.42 1269.75,712.58 1268.89,712.91"/>
    </edge>
    <edge id=":1385743859_9" function="internal">
        <lane id=":1385743859_9_0" index="0" speed="13.89" length="5.89" shape="1268.53,716.28 1268.39,716.45 1266.03,717.20 1262.87,716.75"/>
    </edge>
    <edge id=":1385743859_10" function="internal">
        <lane id=":1385743859_10_0" index="0" speed="13.89" length="2.41" shape="1268.89,712.91 1268.11,712.43 1267.40,711.12"/>
    </edge>
    <edge id=":1385743859_3" function="internal">
        <lane id=":1385743859_3_0" index="0" disallow="tram rail_urban rail rail_electric ship" speed="13.89" length="5.24" shape="1263.79,713.58 1265.25,713.79 1266.34,713.45 1267.06,712.56 1267.40,711.12"/>
    </edge>
    <edge id=":1385743859_4" function="internal">
        <lane id=":1385743859_4_0" index="0" disallow="tram rail_urban rail rail_electric ship" speed="13.89" length="10.47" shape="1263.79,713.58 1266.61,714.76 1268.55,716.38 1269.62,718.46 1269.80,721.00"/>
    </edge>
    <edge id=":1385743859_5" function="internal">
        <lane id=":1385743859_5_0" index="0" disallow="tram rail_urban rail rail_electric ship" speed="13.89" length="4.82" shape="1263.79,713.58 1264.74,714.72 1264.91,715.63 1264.29,716.30 1262.87,716.75"/>
    </edge>
    <edge id=":1385743859_6" function="internal">