<?xml version="1.0"?>
<!-- generated on 2016-12-05 11:02:46.897000 by $Id: randomTrips.py 21557 2016-09-28 10:43:52Z luecken $
  options: -n mapa2.net.xml -r mapa2.rou.xml -e 100 -l
-->
<trips>
    <trip id="0" depart="0.00" from="-36841542" to="36841539#0" />
    <trip id="1" depart="1.00" from="36841526#1" to="-31018630#6" />
    <trip id="2" depart="2.00" from="-196319631#1" to="-291628000#8" />
    <trip id="3" depart="3.00" from="-62323393" to="36841513#0" />
    <trip id="4" depart="4.00" from="36841539#0" to="251990942#1" />
    <trip id="5" depart="5.00" from="436208746#2" to="36841510" />
    <trip id="6" depart="6.00" from="196319591#0" to="404765281" />
    <trip id="7" depart="7.00" from="36841540" to="-196319632#0" />
    <trip id="8" depart="8.00" from="-287233519#13" to="-60642294#1" />
    <trip id="9" depart="9.00" from="124491537" to="-142418956#1" />
    <trip id="10" depart="10.00" from="31018713#0" to="62323392" />
    <trip id="11" depart="11.00" from="62323384#0" to="31018630#0" />
    <trip id="12" depart="12.00" from="-60642294#3" to="36841539#0" />
    <trip id="13" depart="13.00" from="-436208746#3" to="9627667#0" />
    <trip id="14" depart="14.00" from="-436208058#7" to="-36841597" />
    <trip id="15" depart="15.00" from="9627667#0" to="-287233519#13" />
    <trip id="16" depart="16.00" from="31018630#7" to="142418955#4" />
    <trip id="17" depart="17.00" from="196319572#0" to="36841539#0" />
    <trip id="18" depart="18.00" from="196319632#5" to="-36841574" />
    <trip id="19" depart="19.00" from="-60642294#1" to="284388363" />
    <trip id="20" depart="20.00" from="36841507#1" to="36841516#5" />
    <trip id="21" depart="21.00" from="251990941#1" to="196319623#1" />
    <trip id="22" depart="22.00" from="36841516#2" to="36841510" />
    <trip id="23" depart="23.00" from="291628000#12" to="62323382" />
    <trip id="24" depart="24.00" from="110890108" to="196319631#3" />
    <trip id="25" depart="25.00" from="360094309#0" to="110890108" />
    <trip id="26" depart="26.00" from="-36841522" to="196319572#3" />
    <trip id="27" depart="27.00" from="196319632#2" to="-62323384#0" />
    <trip id="28" depart="28.00" from="-118415015" to="-62323392" />
    <trip id="29" depart="29.00" from="-196319631#4" to="-291628000#7" />
    <trip id="30" depart="30.00" from="251990942#1" to="-36841597" />
    <trip id="31" depart="31.00" from="196319632#2" to="-36841513#0" />
    <trip id="32" depart="32.00" from="-36841513#0" to="-196319631#1" />
    <trip id="33" depart="33.00" from="31018630#0" to="-31536543#2" />
    <trip id="34" depart="34.00" from="-287233519#13" to="36841516#8" />
    <trip id="35" depart="35.00" from="-124494995#3" to="62323373" />
    <trip id="36" depart="36.00" from="285151638#0" to="-36841521#1" />
    <trip id="37" depart="37.00" from="251990942#0" to="-36841597" />
    <trip id="38" depart="38.00" from="36841522" to="36841539#0" />
    <trip id="39" depart="39.00" from="333576619#0" to="36841524#0" />
    <trip id="40" depart="40.00" from="196319572#3" to="196319581#0" />
    <trip id="41" depart="41.00" from="-36841519" to="-287233519#14" />
    <trip id="42" depart="42.00" from="291628004#0" to="291628004#0" />
    <trip id="43" depart="43.00" from="31018629" to="9627667#0" />
    <trip id="44" depart="44.00" from="291628004#4" to="284388363" />
    <trip id="45" depart="45.00" from="196319574#0" to="-333576619#0" />
    <trip id="46" depart="46.00" from="36841574" to="-36841598#0" />
    <trip id="47" depart="47.00" from="-36841576" to="446153599#0" />
    <trip id="48" depart="48.00" from="119314478" to="-287233519#14" />
    <trip id="49" depart="49.00" from="-389615220" to="-36841597" />
    <trip id="50" depart="50.00" from="-62323382" to="446160674" />
    <trip id="51" depart="51.00" from="36841541#1" to="-60642294#2" />
    <trip id="52" depart="52.00" from="-196319632#4" to="44117515" />
    <trip id="53" depart="53.00" from="196319592#0" to="-36841540" />
    <trip id="54" depart="54.00" from="-291628004#0" to="62323384#1" />
    <trip id="55" depart="55.00" from="258250383#0" to="196319541#0" />
    <trip id="56" depart="56.00" from="62323384#1" to="291628004#0" />
    <trip id="57" depart="57.00" from="196319539#0" to="-31536543#2" />
    <trip id="58" depart="58.00" from="-196319527" to="31018630#3" />
    <trip id="59" depart="59.00" from="-36841532#2" to="9627338#1" />
    <trip id="60" depart="60.00" from="36841516#5" to="-60642295#2" />
    <trip id="61" depart="61.00" from="367502764#0" to="291628000#5" />
    <trip id="62" depart="62.00" from="-31536543#2" to="287233519#14" />
    <trip id="63" depart="63.00" from="-36841530" to="-36841507#1" />
    <trip id="64" depart="64.00" from="-110890195#1" to="-285151638#4" />
    <trip id="65" depart="65.00" from="36841531#1" to="-436208058#7" />
    <trip id="66" depart="66.00" from="196319631#1" to="36841539#0" />
    <trip id="67" depart="67.00" from="36841574" to="36841525#1" />
    <trip id="68" depart="68.00" from="291628004#4" to="196319556#0" />
    <trip id="69" depart="69.00" from="-436208058#7" to="36841538#0" />
    <trip id="70" depart="70.00" from="110890195#1" to="-36841599#0" />
    <trip id="71" depart="71.00" from="196319623#1" to="-287233519#13" />
    <trip id="72" depart="72.00" from="196319632#1" to="-194914878" />
    <trip id="73" depart="73.00" from="-333576619#0" to="196319631#3" />
    <trip id="74" depart="74.00" from="291628004#0" to="36841516#5" />
    <trip id="75" depart="75.00" from="281200263#0" to="251990941#0" />
    <trip id="76" depart="76.00" from="360094309#0" to="36841576" />
    <trip id="77" depart="77.00" from="-436208746#2" to="-24403602#3" />
    <trip id="78" depart="78.00" from="196319589" to="-31018630#8" />
    <trip id="79" depart="79.00" from="291628004#4" to="36841598#1" />
    <trip id="80" depart="80.00" from="196319589" to="-36841598#0" />
    <trip id="81" depart="81.00" from="-62323390" to="36841524#0" />
    <trip id="82" depart="82.00" from="31018722#0" to="-36841506#4" />
    <trip id="83" depart="83.00" from="62323384#1" to="291628004#4" />
    <trip id="84" depart="84.00" from="36841541#1" to="36841539#0" />
    <trip id="85" depart="85.00" from="196319629#0" to="285151638#1" />
    <trip id="86" depart="86.00" from="-36841521#1" to="-31018629" />
    <trip id="87" depart="87.00" from="36841598#0" to="62323392" />
    <trip id="88" depart="88.00" from="36841516#2" to="-60642295#2" />
    <trip id="89" depart="89.00" from="291628000#8" to="196319572#3" />
    <trip id="90" depart="90.00" from="36841525#1" to="-36841574" />
    <trip id="91" depart="91.00" from="196319615#1" to="404755770" />
    <trip id="92" depart="92.00" from="36841597" to="196319631#3" />
    <trip id="93" depart="93.00" from="-62323382" to="36841539#0" />
    <trip id="94" depart="94.00" from="-124491537" to="-36841541#1" />
    <trip id="95" depart="95.00" from="-291628000#8" to="-36841520#0" />
    <trip id="96" depart="96.00" from="-62323382" to="-31536543#2" />
    <trip id="97" depart="97.00" from="142418956#1" to="36841524#0" />
    <trip id="98" depart="98.00" from="36841524#0" to="-36841598#0" />
    <trip id="99" depart="99.00" from="446153598#0" to="36841540" />
</trips>
