<?xml version="1.0" encoding="UTF-8"?>

<!-- generated on 12/05/16 10:58:52 by SUMO polyconvert Version 0.28.0
<?xml version="1.0" encoding="UTF-8"?>

<configuration xmlns:xsi="http://www.w3.org/2001/XMLSchema-instance" xsi:noNamespaceSchemaLocation="http://sumo.dlr.de/xsd/polyconvertConfiguration.xsd">

    <input>
        <net-file value="mapa2.net.xml"/>
        <osm-files value="mapa.osm"/>
        <type-file value="typemap.xml"/>
    </input>

    <output>
        <output-file value="mapa2.poly.xml"/>
    </output>

    <processing>
        <poi-layer-offset value="5"/>
    </processing>

</configuration>
-->

<additional xmlns:xsi="http://www.w3.org/2001/XMLSchema-instance" xsi:noNamespaceSchemaLocation="http://sumo.dlr.de/xsd/additional_file.xsd">
    <location netOffset="-714012.47,-5483517.01" convBoundary="-19222.76,-13830.57,15456.77,11413.70" origBoundary="17.692117,49.341537,18.167080,49.574039" projParameter="+proj=utm +zone=33 +ellps=WGS84 +datum=WGS84 +units=m +no_defs"/>

    <poly id="124491527" type="building" color="255,230,230" fill="1" layer="-1.00" shape="1187.13,617.69 1190.61,606.33 1191.99,601.97 1190.93,601.60 1183.19,598.94 1181.13,604.89 1173.01,602.32 1174.84,596.10 1170.23,594.45 1168.56,600.79 1164.32,599.50 1165.97,592.98 1160.99,591.26 1153.67,588.53 1148.45,605.19 1187.13,617.69"/>
    <poly id="129456712" type="building" color="255,230,230" fill="1" layer="-1.00" shape="51.91,564.21 48.95,563.76 48.61,566.86 51.50,567.20 51.91,564.21"/>
    <poly id="129456713" type="building" color="255,230,230" fill="1" layer="-1.00" shape="44.56,653.42 44.97,650.32 41.95,649.76 41.54,652.86 44.56,653.42"/>
    <poly id="129456714" type="building" color="255,230,230" fill="1" layer="-1.00" shape="43.22,630.22 43.64,626.89 40.17,626.53 39.97,629.87 43.22,630.22"/>
    <poly id="129456724" type="building" color="255,230,230" fill="1" layer="-1.00" shape="60.81,669.98 61.09,666.65 58.05,666.42 57.63,669.74 60.81,669.98"/>
    <poly id="129456731" type="building" color="255,230,230" fill="1" layer="-1.00" shape="70.56,589.88 70.76,586.66 67.65,586.42 67.31,589.53 70.56,589.88"/>
    <poly id="129456732" type="building" color="255,230,230" fill="1" layer="-1.00" shape="49.31,584.03 46.21,583.58 45.86,586.90 48.89,587.36 49.31,584.03"/>
    <poly id="129456739" type="building" color="255,230,230" fill="1" layer="-1.00" shape="46.76,676.89 47.03,673.67 43.93,673.21 43.51,676.43 46.76,676.89"/>
    <poly id="129456759" type="building" color="255,230,230" fill="1" layer="-1.00" shape="66.59,663.19 67.01,660.09 63.90,659.75 63.56,662.85 66.59,663.19"/>
    <poly id="129456763" type="building" color="255,230,230" fill="1" layer="-1.00" shape="442.30,1229.43 430.28,1214.93 421.16,1222.53 433.32,1237.10 437.50,1233.60 442.30,1229.43"/>
    <poly id="129456764" type="building" color="255,230,230" fill="1" layer="-1.00" shape="72.01,617.54 72.35,614.44 69.17,614.09 68.83,617.19 72.01,617.54"/>
    <poly id="129456769" type="building" color="255,230,230" fill="1" layer="-1.00" shape="45.40,613.60 45.74,610.39 42.64,609.93 42.29,613.26 45.40,613.60"/>
    <poly id="129456785" type="building" color="255,230,230" fill="1" layer="-1.00" shape="62.74,656.03 63.00,653.03 59.76,652.57 59.48,655.79 62.74,656.03"/>
    <poly id="129456786" type="building" color="255,230,230" fill="1" layer="-1.00" shape="76.21,580.75 76.48,577.64 73.45,577.30 73.11,580.29 76.21,580.75"/>
    <poly id="129456789" type="building" color="255,230,230" fill="1" layer="-1.00" shape="64.41,641.07 64.66,638.40 61.41,638.17 61.24,640.72 64.41,641.07"/>
    <poly id="129456792" type="building" color="255,230,230" fill="1" layer="-1.00" shape="74.45,599.71 74.72,596.50 71.26,596.14 70.84,599.35 74.45,599.71"/>
    <poly id="129456801" type="building" color="255,230,230" fill="1" layer="-1.00" shape="-9.47,882.30 -8.47,877.11 -12.57,876.28 -13.71,881.35 -9.47,882.30"/>
    <poly id="129456802" type="building" color="255,230,230" fill="1" layer="-1.00" shape="40.63,668.52 41.05,665.31 37.87,664.96 37.45,668.28 40.63,668.52"/>
    <poly id="129456803" type="building" color="255,230,230" fill="1" layer="-1.00" shape="47.11,638.27 47.38,635.28 44.35,634.82 44.01,637.93 47.11,638.27"/>
    <poly id="129456806" type="building" color="255,230,230" fill="1" layer="-1.00" shape="64.75,680.71 65.16,677.61 61.91,677.15 61.42,680.36 64.75,680.71"/>
    <poly id="129456817" type="building" color="255,230,230" fill="1" layer="-1.00" shape="331.72,708.22 332.83,702.03 329.95,701.59 328.76,707.66 331.72,708.22"/>
    <poly id="129456822" type="building" color="255,230,230" fill="1" layer="-1.00" shape="50.23,577.39 50.49,574.28 47.53,573.94 47.13,576.93 50.23,577.39"/>
    <poly id="129456827" type="building" color="255,230,230" fill="1" layer="-1.00" shape="68.30,649.35 68.72,646.02 65.47,645.56 65.19,649.00 68.30,649.35"/>
    <poly id="129456829" type="building" color="255,230,230" fill="1" layer="-1.00" shape="48.61,661.15 49.02,658.16 46.06,657.60 45.65,660.81 48.61,661.15"/>
    <poly id="129456830" type="building" color="255,230,230" fill="1" layer="-1.00" shape="44.26,622.35 44.68,618.92 41.43,618.46 40.94,621.89 44.26,622.35"/>
    <poly id="129456831" type="building" color="255,230,230" fill="1" layer="-1.00" shape="380.51,1130.95 392.12,1127.41 382.38,1095.64 370.74,1099.29 380.51,1130.95"/>
    <poly id="129456834" type="building" color="255,230,230" fill="1" layer="-1.00" shape="69.65,633.48 70.05,630.49 67.02,630.15 66.68,633.25 69.65,633.48"/>
    <poly id="129456848" type="building" color="255,230,230" fill="1" layer="-1.00" shape="66.27,625.33 66.61,622.12 63.50,621.88 63.23,624.99 66.27,625.33"/>
    <poly id="129456856" type="building" color="255,230,230" fill="1" layer="-1.00" shape="46.44,605.63 46.86,602.08 43.90,601.74 43.48,605.07 46.44,605.63"/>
    <poly id="129456857" type="building" color="255,230,230" fill="1" layer="-1.00" shape="-79.64,1004.90 -76.03,990.57 -83.72,988.71 -87.39,1002.92 -79.64,1004.90"/>
    <poly id="129456860" type="building" color="255,230,230" fill="1" layer="-1.00" shape="50.55,646.76 51.04,643.66 47.79,643.20 47.37,646.41 50.55,646.76"/>
    <poly id="129456880" type="building" color="255,230,230" fill="1" layer="-1.00" shape="68.64,607.39 68.99,603.95 65.59,603.60 65.17,607.03 68.64,607.39"/>
    <poly id="129456882" type="building" color="255,230,230" fill="1" layer="-1.00" shape="472.11,1108.83 472.81,1109.16 473.07,1108.57 477.54,1106.96 478.03,1107.26 478.36,1106.71 477.89,1106.45 476.39,1101.94 476.63,1101.41 475.96,1101.04 475.64,1101.54 471.13,1103.07 470.59,1102.79 470.28,1103.49 470.85,1103.77 472.28,1108.30 472.11,1108.83"/>
    <poly id="129456936" type="building" color="255,230,230" fill="1" layer="-1.00" shape="116.66,967.96 117.30,962.75 119.18,961.04 129.75,959.68 129.12,953.64 103.54,951.08 101.72,966.03 116.66,967.96"/>
    <poly id="129456954" type="building" color="255,230,230" fill="1" layer="-1.00" shape="342.67,1255.37 359.28,1253.44 360.12,1260.25 368.66,1259.22 367.02,1245.63 369.47,1245.35 368.97,1241.09 341.33,1244.33 342.67,1255.37"/>
    <poly id="140911696" type="industrial" color="209,209,204" fill="1" layer="-3.00" shape="201.67,637.87 239.96,657.45 268.82,661.19 285.89,662.34 309.31,663.91 362.65,587.84 372.41,563.91 373.57,522.11 320.31,510.78 321.17,499.14 288.89,497.66 241.48,510.58 216.04,549.42 201.67,637.87"/>
    <poly id="179738280" type="unknown" color="51,128,255" fill="0" layer="-1.00" shape="-442.08,2288.77 -438.20,2290.74 -415.03,2309.16 -405.76,2312.66 -392.09,2262.16 -379.80,2172.42 -375.14,2152.93 -240.69,1868.02 -126.31,1662.58 -85.29,1580.67 -80.12,1564.28 -75.21,1552.22 -63.23,1524.59 -54.06,1501.62 -45.88,1473.45 -42.95,1454.33 -40.61,1435.19 -37.78,1384.30 -39.62,1366.79 -46.40,1347.56 -69.74,1297.17 -103.13,1248.22 -119.79,1212.96 -134.00,1185.85 -140.69,1145.23 -136.77,1052.66 -133.12,1041.82 -130.25,1024.90 -126.51,965.74 -129.17,915.89 -127.97,889.76 -126.59,871.66 -95.66,822.95 -33.06,739.31 -2.45,664.58 21.95,548.62 37.16,348.62 46.77,297.66 55.13,244.69"/>
    <poly id="196319537" type="parking" color="184,184,179" fill="1" layer="-1.00" shape="1584.47,639.24 1586.27,596.40 1592.85,596.67 1590.85,639.54 1584.47,639.24"/>
    <poly id="196319543" type="parking" color="184,184,179" fill="1" layer="-1.00" shape="1312.24,908.43 1327.68,896.82 1348.94,921.10 1333.20,934.49 1312.24,908.43"/>
    <poly id="196319571" type="parking" color="184,184,179" fill="1" layer="-1.00" shape="1433.53,502.66 1415.75,469.94 1421.81,463.46 1428.77,459.51 1444.29,491.66 1438.05,494.95 1440.34,499.24 1433.53,502.66"/>
    <poly id="201739053" type="water" color="181,209,209" fill="1" layer="-4.00" shape="-9589.18,7029.57 -9535.34,7019.01 -9491.83,7001.14 -9445.82,6979.66 -9398.40,6965.63 -9348.26,6941.95 -9304.77,6915.66 -9264.56,6886.90 -9238.06,6855.27 -9197.60,6810.71 -9159.30,6779.18 -9131.29,6761.06 -9068.12,6731.82 -9036.50,6716.19 -8965.50,6694.31 -8913.11,6682.48 -8864.44,6671.20 -8788.09,6659.27 -8676.37,6639.94 -8588.38,6623.74 -8515.21,6606.99 -8464.11,6585.03 -8410.65,6554.08 -8356.44,6521.14 -8320.25,6482.81 -8275.34,6437.07 -8236.78,6389.75 -8196.99,6345.84 -8185.99,6322.70 -8169.13,6296.09 -8149.09,6265.90 -8103.99,6206.04 -8073.39,6164.46 -8041.30,6136.40 -7988.77,6103.73 -7930.80,6069.60 -7868.19,6028.90 -7804.40,6001.70 -7745.93,5972.29 -7702.11,5937.62 -7608.11,5896.77 -7535.50,5868.56 -7416.60,5820.59 -7355.07,5799.70 -7284.82,5771.08 -7228.80,5744.27 -7191.45,5720.45 -7166.82,5702.88 -7148.39,5679.36 -7130.77,5642.00 -7111.06,5602.71 -7075.36,5533.41 -7048.57,5485.63 -7021.15,5438.89 -7000.46,5418.48 -6985.68,5402.21 -6955.66,5384.85 -6916.63,5370.18 -6872.46,5353.35 -6832.33,5345.13 -6756.44,5328.49 -6666.30,5318.46 -6590.83,5312.92 -6552.91,5309.65 -6522.01,5304.44 -6467.10,5289.37 -6409.85,5265.64 -6381.54,5249.22 -6325.74,5219.38 -6283.74,5179.92 -6222.19,5123.38 -6174.59,5070.01 -6139.42,5023.91 -6060.69,4906.09 -6013.22,4856.09 -5959.82,4801.24 -5937.12,4772.50 -5885.11,4718.28 -5848.94,4681.64 -5802.51,4623.50 -5743.17,4589.76 -5675.87,4568.44 -5607.14,4545.15 -5573.31,4543.41 -5512.19,4559.89 -5441.12,4572.71 -5388.91,4575.38 -5315.74,4577.17 -5256.24,4574.74 -5195.45,4564.95 -5154.37,4549.70 -5097.66,4523.27 -5005.06,4467.24 -4927.40,4413.69 -4884.41,4375.28 -4809.65,4282.90 -4781.41,4241.92 -4737.18,4188.75 -4665.69,4111.39 -4610.80,4053.24 -4563.54,4018.03 -4501.46,3983.74 -4448.70,3946.04 -4388.24,3909.99 -4308.26,3875.38 -4258.31,3858.11 -4188.70,3838.57 -4097.82,3827.93 -3970.00,3813.34 -3893.65,3803.15 -3806.38,3789.68 -3686.14,3770.42 -3617.19,3759.63 -3571.82,3755.99 -3449.72,3758.69 -3380.18,3758.68 -3263.28,3756.13 -3225.82,3756.23 -3182.19,3754.21 -3139.95,3744.41 -3103.87,3727.96 -3031.02,3686.00 -2991.58,3670.03 -2947.83,3656.24 -2913.40,3647.48 -2871.54,3638.66 -2838.22,3632.55 -2772.99,3630.70 -2695.73,3632.01 -2656.75,3636.55 -2621.89,3642.96 -2579.42,3653.35 -2538.52,3660.66 -2476.89,3673.15 -2431.48,3677.61 -2390.52,3674.49 -2365.30,3668.40 -2299.29,3646.38 -2261.68,3616.87 -2234.59,3588.64 -2202.49,3544.44 -2175.35,3514.86 -2160.70,3494.23 -2129.74,3461.77 -2094.91,3442.92 -2070.62,3434.78 -2028.03,3424.64 -1959.78,3414.51 -1900.68,3405.36 -1879.62,3402.14 -1637.35,3370.84 -1516.93,3356.34 -1426.06,3337.67 -1315.39,3313.36 -1269.94,3299.32 -1218.71,3284.49 -1166.01,3257.59 -1101.17,3214.00 -1063.16,3191.58 -1020.26,3164.97 -959.33,3117.87 -896.87,3066.10 -870.89,3040.52 -822.64,2981.14 -789.07,2933.97 -754.83,2878.74 -714.87,2798.15 -691.72,2750.24 -676.34,2719.53 -673.94,2714.63 -611.03,2586.39 -585.61,2532.16 -545.14,2455.97 -486.05,2343.80 -435.70,2248.13 -374.63,2120.19 -344.35,2054.04 -296.98,1956.89 -265.49,1894.48 -223.48,1813.29 -193.42,1761.59 -167.87,1721.51 -144.91,1678.63 -129.22,1648.93 -125.22,1624.51 -123.80,1596.61 -125.13,1544.70 -140.29,1440.05 -160.66,1339.56 -167.18,1256.11 -169.30,1198.11 -169.24,1127.71 -161.45,1066.72 -159.22,1035.83 -153.04,1007.44 -147.90,979.69 -135.89,940.42 -111.68,882.75 -84.45,825.89 -52.34,739.24 -26.81,673.89 -13.54,628.27 -1.52,563.06 3.38,524.18 12.85,446.40 18.46,372.18 22.17,329.21 32.54,271.67 39.98,245.69 58.99,183.11 77.01,128.58 106.88,47.21 129.37,-9.17 146.31,-53.65 155.75,-78.88 169.40,-73.36 179.70,-69.18 158.98,-6.33 143.79,36.54 122.08,99.01 109.85,126.49 89.77,181.95 78.50,219.58 56.36,293.16 43.69,357.72 43.04,374.37 42.39,390.98 41.21,420.90 33.24,512.21 26.47,564.16 15.97,625.04 -1.22,701.83 -25.76,776.33 -55.80,853.29 -95.60,937.95 -112.79,997.23 -127.11,1043.82 -133.77,1093.07 -135.51,1120.28 -141.51,1169.89 -139.89,1223.17 -127.00,1333.80 -110.57,1440.20 -106.34,1467.63 -101.24,1500.74 -92.99,1554.23 -86.34,1597.41 -89.02,1640.08 -100.03,1670.96 -119.47,1718.69 -239.05,1913.28 -245.46,1926.29 -269.68,1975.47 -371.51,2187.00 -422.56,2283.32 -532.25,2514.73 -567.20,2588.11 -636.57,2731.12 -669.27,2798.51 -705.21,2868.76 -727.68,2906.21 -773.54,2973.94 -810.01,3033.46 -848.76,3078.12 -887.32,3117.80 -923.94,3150.89 -964.59,3182.87 -1008.11,3215.44 -1064.07,3248.26 -1114.01,3273.92 -1166.91,3295.89 -1214.57,3312.13 -1263.45,3328.79 -1312.77,3344.71 -1347.81,3355.49 -1406.03,3367.27 -1479.73,3383.91 -1581.64,3401.60 -1664.02,3408.15 -1789.03,3424.47 -1874.70,3435.90 -1979.57,3450.14 -2016.13,3457.06 -2058.92,3464.91 -2087.69,3480.46 -2116.46,3495.76 -2135.31,3513.84 -2154.99,3534.97 -2184.53,3570.23 -2208.82,3605.71 -2235.69,3633.71 -2272.82,3661.78 -2296.01,3674.93 -2331.64,3688.77 -2354.67,3697.88 -2398.28,3708.33 -2443.75,3711.33 -2498.23,3712.54 -2534.88,3709.93 -2579.52,3703.68 -2614.60,3697.32 -2647.89,3687.93 -2689.94,3676.31 -2721.30,3666.28 -2748.43,3664.28 -2793.78,3664.19 -2837.57,3667.01 -2897.09,3681.37 -2944.32,3692.87 -2980.05,3703.38 -3008.54,3711.80 -3040.70,3728.41 -3090.72,3756.46 -3115.22,3772.89 -3160.53,3784.00 -3211.10,3789.42 -3265.55,3789.93 -3299.25,3791.24 -3333.84,3790.39 -3528.41,3791.44 -3606.68,3796.98 -3679.16,3807.04 -3770.41,3821.37 -3898.87,3840.93 -3962.08,3852.06 -4060.35,3868.98 -4154.40,3881.55 -4187.45,3884.31 -4205.32,3889.82 -4299.12,3914.54 -4346.55,3931.27 -4415.31,3969.09 -4463.56,4001.03 -4520.51,4035.73 -4574.22,4073.18 -4624.05,4115.06 -4665.07,4157.99 -4711.75,4211.17 -4741.09,4241.94 -4787.65,4304.40 -4810.97,4333.73 -4855.33,4376.30 -4883.58,4403.53 -4913.87,4452.83 -4950.43,4491.40 -4974.06,4516.20 -5013.71,4548.24 -5042.14,4561.42 -5076.47,4579.15 -5100.90,4587.49 -5144.51,4604.62 -5242.13,4636.09 -5274.52,4646.75 -5297.62,4651.58 -5310.07,4652.77 -5323.81,4650.11 -5337.60,4648.62 -5355.32,4650.33 -5379.17,4649.89 -5418.47,4641.72 -5452.39,4630.19 -5486.48,4616.51 -5510.50,4601.79 -5536.89,4593.16 -5572.74,4588.22 -5613.32,4594.52 -5643.69,4608.59 -5669.52,4622.60 -5701.59,4643.73 -5737.52,4690.92 -5769.90,4732.75 -5807.50,4773.43 -5825.06,4789.66 -5849.08,4812.53 -5879.73,4840.16 -5922.05,4860.91 -5951.89,4886.19 -5994.62,4918.11 -6031.39,4962.39 -6071.42,5010.60 -6126.41,5069.65 -6182.27,5138.91 -6217.93,5179.43 -6266.39,5223.74 -6299.91,5245.30 -6348.03,5274.64 -6412.77,5307.87 -6460.20,5325.10 -6514.49,5334.68 -6585.27,5344.83 -6650.99,5353.75 -6691.80,5360.29 -6745.03,5366.84 -6802.56,5373.69 -6858.71,5394.63 -6906.51,5409.23 -6927.82,5417.46 -6953.82,5429.79 -6980.26,5447.59 -7007.79,5474.86 -7024.39,5497.31 -7045.54,5532.67 -7072.98,5583.02 -7084.61,5606.61 -7090.67,5633.97 -7116.55,5681.06 -7134.63,5704.64 -7160.70,5725.30 -7186.71,5750.48 -7219.42,5769.93 -7245.21,5782.99 -7285.45,5805.97 -7347.96,5837.38 -7441.62,5878.56 -7491.38,5901.18 -7547.73,5920.93 -7604.42,5943.76 -7640.56,5959.29 -7681.77,5976.52 -7719.76,5996.96 -7738.20,6011.26 -7765.47,6032.11 -7841.92,6072.75 -7893.74,6099.34 -7939.96,6122.80 -7995.37,6149.50 -8033.23,6172.80 -8057.32,6190.68 -8072.40,6208.10 -8087.96,6229.23 -8106.33,6258.70 -8122.73,6285.08 -8144.03,6314.45 -8163.01,6343.23 -8189.72,6380.75 -8233.78,6429.28 -8266.72,6467.76 -8287.21,6492.21 -8312.14,6514.58 -8346.07,6547.55 -8378.22,6571.31 -8408.66,6587.53 -8450.52,6609.73 -8488.23,6629.25 -8517.79,6641.21 -8577.80,6657.50 -8612.47,6665.95 -8647.36,6673.91 -8709.09,6684.90 -8762.17,6694.55 -8810.13,6701.32 -8857.18,6709.29 -8901.45,6719.28 -8942.12,6728.46 -8973.93,6737.01 -9012.71,6747.20 -9046.39,6754.74 -9068.43,6763.42 -9110.82,6787.05 -9139.91,6805.69 -9180.20,6836.76 -9201.22,6862.85 -9213.75,6882.05 -9233.30,6899.65 -9257.71,6916.23 -9285.64,6941.42 -9311.82,6955.74 -9392.09,7000.15 -9444.86,7022.22 -9495.28,7035.30 -9554.49,7053.59 -9588.56,7061.87 -9589.18,7029.57"/>