<?xml version="1.0" encoding="UTF-8"?>

<!-- generated on 12/05/16 11:02:47 by SUMO duarouter Version 0.28.0
<?xml version="1.0" encoding="UTF-8"?>

<configuration xmlns:xsi="http://www.w3.org/2001/XMLSchema-instance" xsi:noNamespaceSchemaLocation="http://sumo.dlr.de/xsd/duarouterConfiguration.xsd">

    <input>
        <net-file value="mapa2.net.xml"/>
        <trip-files value="trips.trips.xml"/>
    </input>

    <output>
        <output-file value="mapa2.rou.xml"/>
    </output>

    <processing>
        <ignore-errors value="true"/>
    </processing>

    <time>
        <begin value="0"/>
        <end value="100.0"/>
    </time>

    <report>
        <no-warnings value="true"/>
        <no-step-log value="true"/>
    </report>

</configuration>
-->

<routes xmlns:xsi="http://www.w3.org/2001/XMLSchema-instance" xsi:noNamespaceSchemaLocation="http://sumo.dlr.de/xsd/routes_file.xsd">
    <vehicle id="0" depart="0.00">
        <route edges="-36841542 -251990942#0 -287233519#13 36841539#0"/>
    </vehicle>
    <vehicle id="1" depart="1.00">
        <route edges="36841526#1 36841526#3 -291628000#7 -291628000#6 -291628000#4 -291628000#0 -251990941#2 31018630#6 -31018630#6"/>
    </vehicle>
    <vehicle id="2" depart="2.00">
        <route edges="-196319631#1 -196319631#0 196319590#0 392944086 392944088 392944089#0 392944089#1 367502765 9627667#0 9627667#2 9627667#3 196319541#0 367502763 291628001 291628000#0 291628000#1 291628000#5 291628000#7 291628000#8 -291628000#8"/>
    </vehicle>
    <vehicle id="3" depart="3.00">
        <route edges="-62323393 -110890089#1 -36841511 36841512#0 36841512#1 36841513#0"/>
    </vehicle>
    <vehicle id="4" depart="4.00">
        <route edges="36841539#0 251990942#0 251990942#1"/>
    </vehicle>
    <vehicle id="5" depart="5.00">
        <route edges="436208746#2 -436208746#2 -436208746#1 -390991350 -124491539 -124494987#2 -124494984 -31018717#1 390993054 196319615#1 196319615#2 446156279 196319623#3 446156283 196319576 367502762#4 367502762#5 24403609#0 196319572#0 196319572#3 24403597#1 196319568#0 196319631#0 196319631#1 36841509 36841510"/>
    </vehicle>
    <vehicle id="8" depart="8.00">
        <route edges="-287233519#13 -436208058#8 -291628000#12 -291628000#11 -291628000#10 -291628000#9 -291628000#8 -291628000#7 -291628000#6 -291628000#4 -291628000#0 -291628001 -367502763 196319614 31018628 367502762#2 367502762#3 367502762#4 24403600 196319556#0 36841516#0 36841516#2 36841516#4 -36841512#4 -36841512#2 -36841512#1 -36841512#0 36841511 110890089#0 110890089#2 333576619#0 333576619#1 -62323381 -62323392 36841532#0 -36841530 -60642294#1"/>
    </vehicle>
    <vehicle id="9" depart="9.00">
        <route edges="124491537 -124491537 -31018717#4 -31018717#1 390993054 196319615#1 196319615#2 446156279 196319623#3 446156283 196319576 367502762#4 367502762#5 24403609#0 24403609#1 196319534 -196319614 367502763 291628001 291628000#0 291628000#1 291628000#5 291628000#7 291628000#8 291628000#9 291628000#10 291628000#11 291628000#12 436208058#8 36841539#0 287233519#14 -142418956#1"/>
    </vehicle>
    <vehicle id="10" depart="10.00">
        <route edges="31018713#0 31018630#3 31018630#6 31018630#7 446160673 9627667#3 196319541#0 196319614 31018628 367502762#2 367502762#3 367502762#4 24403600 196319556#0 36841516#0 36841516#2 36841516#4 -36841512#4 -36841512#2 -36841512#1 -36841512#0 36841511 110890089#0 110890089#2 333576619#0 333576619#1 -62323381 -62323392 62323392"/>
    </vehicle>
    <vehicle id="11" depart="11.00">
        <route edges="62323384#0 62323384#1 -333576619#1 -333576619#0 -237101675 -110890089#1 -36841511 36841512#0 36841512#1 36841512#2 36841512#3 -36841516#4 -36841516#3 -36841516#1 -437444726 196319542 24403609#0 24403609#1 196319534 -196319614 367502763 291628001 -251990941#2 -31018630#5 -31018630#2 31018630#0"/>
    </vehicle>
    <vehicle id="12" depart="12.00">
        <route edges="-60642294#3 -36841532#2 -36841532#1 62323392 62323381 -333576619#1 -333576619#0 -237101675 -110890089#1 -36841511 36841512#0 36841512#1 36841512#2 36841512#3 -36841516#4 -36841516#3 -36841516#1 -437444726 196319542 24403609#0 24403609#1 196319534 -196319614 367502763 291628001 291628000#0 291628000#1 291628000#5 291628000#7 291628000#8 291628000#9 291628000#10 291628000#11 291628000#12 436208058#8 36841539#0"/>
    </vehicle>
    <vehicle id="13" depart="13.00">
        <route edges="-436208746#3 -436208746#2 -436208746#1 -390991350 -124491539 -124494987#2 -124494984 -31018717#1 390993054 196319615#1 196319615#2 446156279 196319623#3 446156283 196319576 367502762#4 367502762#5 24403609#0 196319572#0 196319572#3 24403597#1 392944087 392944086 392944088 392944089#0 392944089#1 367502765 9627667#0"/>
    </vehicle>
    <vehicle id="15" depart="15.00">
        <route edges="9627667#0 9627667#2 9627667#3 196319541#0 367502763 291628001 291628000#0 291628000#1 291628000#5 291628000#7 291628000#8 291628000#9 291628000#10 291628000#11 291628000#12 436208058#8 36841539#0 -287233519#13"/>
    </vehicle>
    <vehicle id="16" depart="16.00">
        <route edges="31018630#7 446160673 9627667#3 196319541#0 367502763 291628001 291628000#0 291628000#1 291628000#5 291628000#7 291628000#8 291628000#9 291628000#10 291628000#11 291628000#12 436208058#8 36841539#0 287233519#14 -142418956#1 -142418956#0 142418955#4"/>
    </vehicle>
    <vehicle id="17" depart="17.00">
        <route edges="196319572#0 196319572#3 24403597#1 392944087 392944086 392944088 392944089#0 196319536#0 196319527 291628004#0 291628004#1 291628004#4 436208058#8 36841539#0"/>
    </vehicle>
    <vehicle id="18" depart="18.00">
        <route edges="196319632#5 -196319632#5 -196319632#4 -196319632#1 -196319632#0 -196319581#1 -196319591#3 -36841574"/>
    </vehicle>
    <vehicle id="19" depart="19.00">
        <route edges="-60642294#1 36841531#0 36841531#1 62323392 62323381 -333576619#1 -333576619#0 -237101675 -110890089#1 -36841511 36841512#0 36841512#1 36841512#2 36841512#3 -36841516#4 -36841516#3 -36841516#1 -437444726 196319542 24403609#0 24403609#1 196319534 -196319614 367502763 291628001 291628000#0 291628000#1 291628000#5 291628000#7 291628000#8 36841525#0 284388363"/>
    </vehicle>
    <vehicle id="20" depart="20.00">
        <route edges="36841507#1 -36841507#1 -36841507#0 196319631#1 196319631#2 36841512#0 36841512#1 36841512#2 36841512#3 36841516#5"/>
    </vehicle>
    <vehicle id="22" depart="22.00">
        <route edges="36841516#2 36841516#4 -36841512#4 -36841512#2 -36841512#1 -36841512#0 -196319631#2 36841509 36841510"/>
    </vehicle>
    <vehicle id="23" depart="23.00">
        <route edges="291628000#12 -291628000#12 -291628000#11 -291628000#10 -291628000#9 -291628000#8 -291628000#7 -291628000#6 -291628000#4 -291628000#0 -291628001 -367502763 196319614 31018628 367502762#2 367502762#3 367502762#4 24403600 196319556#0 36841516#0 36841516#2 36841516#4 -36841512#4 -36841512#2 -36841512#1 -36841512#0 36841511 110890089#0 110890089#2 62323382"/>
    </vehicle>
    <vehicle id="24" depart="24.00">
        <route edges="110890108 -36841507#0 196319631#1 196319631#2 196319631#3"/>
    </vehicle>
    <vehicle id="25" depart="25.00">
        <route edges="360094309#0 -390991350 -124491539 -124494987#2 -124494984 -31018717#1 390993054 196319615#1 196319615#2 446156279 196319623#3 446156283 196319576 367502762#4 367502762#5 24403609#0 196319572#0 196319572#3 24403597#1 196319568#0 196319631#0 36841507#0 -110890108 110890108"/>
    </vehicle>
    <vehicle id="26" depart="26.00">
        <route edges="-36841522 -36841516#1 -437444726 196319542 24403609#0 196319572#0 196319572#3"/>
    </vehicle>
    <vehicle id="28" depart="28.00">
        <route edges="-118415015 -36841512#0 36841511 110890089#0 110890089#2 333576619#0 333576619#1 -62323381 -62323392"/>
    </vehicle>
    <vehicle id="29" depart="29.00">
        <route edges="-196319631#4 36841512#0 36841512#1 36841512#2 36841512#3 -36841516#4 -36841516#3 -36841516#1 -437444726 196319542 24403609#0 24403609#1 196319534 -196319614 367502763 291628001 291628000#0 291628000#1 291628000#5 291628000#7 -291628000#7"/>
    </vehicle>
    <vehicle id="32" depart="32.00">
        <route edges="-36841513#0 -36841512#1 -36841512#0 -196319631#2 -196319631#1"/>
    </vehicle>
    <vehicle id="33" depart="33.00">
        <route edges="31018630#0 31018630#3 -251990941#0 -31018627#1 -31536543#2"/>
    </vehicle>
    <vehicle id="34" depart="34.00">
        <route edges="-287233519#13 -436208058#8 -291628000#12 -291628000#11 -291628000#10 -291628000#9 -291628000#8 -291628000#7 -291628000#6 -291628000#4 -291628000#0 -291628001 -367502763 196319614 31018628 367502762#2 367502762#3 367502762#4 24403600 196319556#0 36841516#0 36841516#2 36841516#4 36841516#5 36841516#8"/>
    </vehicle>
    <vehicle id="35" depart="35.00">
        <route edges="-124494995#3 196319615#2 446156279 196319623#3 446156283 196319576 367502762#4 24403600 196319556#0 36841516#0 36841516#2 36841516#4 -36841512#4 -36841512#2 -36841512#1 -36841512#0 36841511 110890089#0 110890089#2 333576619#0 333576619#1 -62323384#1 62323373"/>
    </vehicle>
    <vehicle id="36" depart="36.00">
        <route edges="285151638#0 285151638#1 36841526#1 36841526#3 -291628000#7 -291628000#6 -291628000#4 -291628000#0 -291628001 -367502763 196319614 31018628 367502762#2 367502762#3 367502762#4 24403600 196319556#0 36841516#0 36841522 -36841521#1"/>
    </vehicle>
    <vehicle id="38" depart="38.00">
        <route edges="36841522 -36841522 -36841516#1 -437444726 196319542 24403609#0 24403609#1 196319534 -196319614 367502763 291628001 291628000#0 291628000#1 291628000#5 291628000#7 291628000#8 291628000#9 291628000#10 291628000#11 291628000#12 436208058#8 36841539#0"/>
    </vehicle>
    <vehicle id="39" depart="39.00">
        <route edges="333576619#0 -333576619#0 -237101675 -110890089#1 -36841511 36841512#0 36841512#1 36841512#2 36841512#3 -36841516#4 -36841516#3 -36841516#1 -437444726 196319542 24403609#0 24403609#1 196319534 -196319614 367502763 31018715#0 36841524#0"/>
    </vehicle>
    <vehicle id="41" depart="41.00">
        <route edges="-36841519 36841520#1 -36841522 -36841516#1 -437444726 196319542 24403609#0 24403609#1 196319534 -196319614 367502763 291628001 291628000#0 291628000#1 291628000#5 291628000#7 291628000#8 291628000#9 291628000#10 291628000#11 291628000#12 436208058#8 36841539#0 287233519#14 -287233519#14"/>
    </vehicle>
    <vehicle id="42" depart="42.00">
        <route edges="291628004#0"/>
    </vehicle>
    <vehicle id="43" depart="43.00">
        <route edges="31018629 -31018630#6 -251990941#0 -31018627#1 -196319527 196319629#0 367502765 9627667#0"/>
    </vehicle>
    <vehicle id="44" depart="44.00">
        <route edges="291628004#4 -291628000#12 -291628000#11 -291628000#10 -291628000#9 36841525#0 284388363"/>
    </vehicle>
    <vehicle id="45" depart="45.00">
        <route edges="196319574#0 -31018717#4 -31018717#1 390993054 196319615#1 196319615#2 446156279 196319623#3 446156283 196319576 367502762#4 24403600 196319556#0 36841516#0 36841516#2 36841516#4 -36841512#4 -36841512#2 -36841512#1 -36841512#0 36841511 110890089#0 110890089#2 333576619#0 -333576619#0"/>
    </vehicle>
    <vehicle id="46" depart="46.00">
        <route edges="36841574 196319591#3 196319581#0 196319632#0 196319632#1 196319632#2 36841598#0 -36841598#0"/>
    </vehicle>
    <vehicle id="50" depart="50.00">
        <route edges="-62323382 -237101675 -110890089#1 -36841510 -36841509 -196319631#1 -196319631#0 196319590#0 392944086 392944088 392944089#0 392944089#1 367502765 9627667#0 446160674"/>
    </vehicle>
    <vehicle id="51" depart="51.00">
        <route edges="36841541#1 -287233519#13 -436208058#8 -291628000#12 -291628000#11 -291628000#10 -291628000#9 -291628000#8 -291628000#7 -291628000#6 -291628000#4 -291628000#0 -291628001 -367502763 196319614 31018628 367502762#2 367502762#3 367502762#4 24403600 196319556#0 36841516#0 36841516#2 36841516#4 -36841512#4 -36841512#2 -36841512#1 -36841512#0 36841511 110890089#0 110890089#2 333576619#0 333576619#1 -62323381 -62323392 36841532#0 36841532#2 -60642294#2"/>
    </vehicle>
    <vehicle id="53" depart="53.00">
        <route edges="196319592#0 196319595 196319620 -436536486#0 -36841507#1 -36841507#0 -196319631#0 196319590#0 392944086 392944088 392944089#0 196319536#0 196319527 291628004#0 291628004#1 291628004#4 436208058#8 36841539#0 251990942#0 -36841540"/>
    </vehicle>
    <vehicle id="54" depart="54.00">
        <route edges="-291628004#0 -196319527 196319629#0 367502765 24403597#0 24403597#1 196319568#0 196319631#0 196319631#1 36841509 36841510 110890089#0 110890089#2 333576619#0 333576619#1 -62323384#1 62323384#1"/>
    </vehicle>
    <vehicle id="55" depart="55.00">
        <route edges="258250383#0 -124494987#2 -124494984 -31018717#1 390993054 196319615#1 196319615#2 446156279 196319623#3 446156283 196319576 367502762#4 367502762#5 24403609#0 24403609#1 196319534 -196319614 367502763 291628001 -251990941#2 31018630#6 31018630#7 446160673 9627667#3 196319541#0"/>
    </vehicle>
    <vehicle id="56" depart="56.00">
        <route edges="62323384#1 -333576619#1 -333576619#0 -237101675 -110890089#1 -36841510 -36841509 -196319631#1 -196319631#0 196319590#0 392944086 392944088 392944089#0 196319536#0 196319527 291628004#0"/>
    </vehicle>
    <vehicle id="57" depart="57.00">
        <route edges="196319539#0 24403599#1 196319572#3 24403597#1 392944087 392944086 392944088 392944089#0 196319536#0 196319527 -31536543#2"/>
    </vehicle>
    <vehicle id="58" depart="58.00">
        <route edges="-196319527 196319527 31018627#0 251990941#0 -31018630#5 31018630#3"/>
    </vehicle>
    <vehicle id="59" depart="59.00">
        <route edges="-36841532#2 -36841532#1 62323392 62323381 -333576619#1 -333576619#0 -237101675 -110890089#1 -36841511 36841512#0 36841512#1 36841512#2 36841512#3 -36841516#4 -36841516#3 -36841516#1 -437444726 196319542 24403609#0 24403609#1 367502762#1 367502762#2 196319523 -446156281 446156280#0 446156282 9627338#0 9627338#0-AddedOffRampEdge 9627338#1"/>
    </vehicle>
    <vehicle id="60" depart="60.00">
        <route edges="36841516#5 -36841516#7 -36841512#4 -36841512#2 -36841512#1 -36841512#0 -196319631#2 -196319631#1 36841507#0 36841507#1 436536486#0 436536486#1 -60642295#2"/>
    </vehicle>
    <vehicle id="61" depart="61.00">
        <route edges="367502764#0 196319534 -196319614 367502763 291628001 291628000#0 291628000#1 291628000#5"/>
    </vehicle>
    <vehicle id="62" depart="62.00">
        <route edges="-31536543#2 291628004#4 436208058#8 36841539#0 287233519#14"/>
    </vehicle>
    <vehicle id="63" depart="63.00">
        <route edges="-36841530 36841530 -36841532#1 62323392 62323381 -333576619#1 -333576619#0 -237101675 -110890089#1 -36841510 110890240#0 110890240#1 -44117515 -36841507#1"/>
    </vehicle>
    <vehicle id="64" depart="64.00">
        <route edges="-110890195#1 -110890195#0 -287233519#14 -287233519#13 -436208058#8 -291628000#12 -291628000#11 -291628000#10 -291628000#9 36841525#0 36841525#1 285151638#1 -285151638#4"/>
    </vehicle>
    <vehicle id="65" depart="65.00">
        <route edges="36841531#1 62323392 62323381 -333576619#1 -333576619#0 -237101675 -110890089#1 -36841511 36841512#0 36841512#1 36841512#2 36841512#3 -36841516#4 -36841516#3 -36841516#1 -437444726 196319542 24403609#0 24403609#1 196319534 -196319614 367502763 291628001 291628000#0 291628000#1 291628000#5 291628000#7 291628000#8 291628000#9 291628000#10 291628000#11 291628000#12 -436208058#7"/>
    </vehicle>
    <vehicle id="66" depart="66.00">
        <route edges="196319631#1 -196319631#1 -196319631#0 196319590#0 392944086 392944088 392944089#0 196319536#0 196319527 291628004#0 291628004#1 291628004#4 436208058#8 36841539#0"/>
    </vehicle>
    <vehicle id="68" depart="68.00">
        <route edges="291628004#4 -291628000#12 -291628000#11 -291628000#10 -291628000#9 -291628000#8 -291628000#7 -291628000#6 -291628000#4 -291628000#0 -291628001 -367502763 196319614 31018628 367502762#2 367502762#3 367502762#4 24403600 196319556#0"/>
    </vehicle>
    <vehicle id="69" depart="69.00">
        <route edges="-436208058#7 291628004#4 436208058#8 36841539#0 287233519#14 -142418956#1 36841538#0"/>
    </vehicle>
    <vehicle id="71" depart="71.00">
        <route edges="196319623#1 196319623#2 196319623#3 446156283 196319576 367502762#4 367502762#5 24403609#0 24403609#1 196319534 -196319614 367502763 291628001 291628000#0 291628000#1 291628000#5 291628000#7 291628000#8 291628000#9 291628000#10 291628000#11 291628000#12 436208058#8 36841539#0 -287233519#13"/>
    </vehicle>
    <vehicle id="72" depart="72.00">
        <route edges="196319632#1 -196319632#1 -196319632#0 -196319581#1 -196319591#3 -194914878"/>
    </vehicle>
    <vehicle id="73" depart="73.00">
        <route edges="-333576619#0 -237101675 -110890089#1 -36841511 196319631#3"/>
    </vehicle>
    <vehicle id="74" depart="74.00">
        <route edges="291628004#0 -291628004#0 31018627#0 251990941#0 31018630#6 31018630#7 446160673 9627667#3 196319541#0 196319614 31018628 367502762#2 367502762#3 367502762#4 24403600 196319556#0 36841516#0 36841516#2 36841516#4 36841516#5"/>
    </vehicle>
    <vehicle id="75" depart="75.00">
        <route edges="281200263#0 36841541#0 36841541#1 -287233519#13 -436208058#8 -436208058#7 -291628004#3 -291628004#0 31018627#0 251990941#0"/>
    </vehicle>
    <vehicle id="77" depart="77.00">
        <route edges="-436208746#2 -436208746#1 -390991350 -124491539 -124494987#2 -124494984 -31018717#1 390993054 196319615#1 196319615#2 446156279 196319623#3 446156283 196319576 367502762#4 24403600 196319556#0 24403602#0 -24403602#3"/>
    </vehicle>
    <vehicle id="78" depart="78.00">
        <route edges="196319589 196319522#1 446153598#0 392944089#0 392944089#1 367502765 9627667#0 446160674 -31018630#8"/>
    </vehicle>
    <vehicle id="81" depart="81.00">
        <route edges="-62323390 -333576619#1 -333576619#0 -237101675 -110890089#1 -36841511 36841512#0 36841512#1 36841512#2 36841512#3 -36841516#4 -36841516#3 -36841516#1 -437444726 196319542 24403609#0 24403609#1 196319534 -196319614 367502763 31018715#0 36841524#0"/>
    </vehicle>
    <vehicle id="82" depart="82.00">
        <route edges="31018722#0 124491530 -124491539 -124494987#2 -124494984 -31018717#1 390993054 196319615#1 196319615#2 446156279 196319623#3 446156283 196319576 367502762#4 367502762#5 24403609#0 24403609#1 196319534 -196319614 367502763 291628001 291628000#0 291628000#1 291628000#5 -36841506#5 -36841506#4"/>
    </vehicle>
    <vehicle id="83" depart="83.00">
        <route edges="62323384#1 -333576619#1 -333576619#0 -237101675 -110890089#1 -36841510 -36841509 -196319631#1 -196319631#0 196319590#0 392944086 392944088 392944089#0 196319536#0 196319527 291628004#0 291628004#1 291628004#4"/>
    </vehicle>
    <vehicle id="84" depart="84.00">
        <route edges="36841541#1 -287233519#13 36841539#0"/>
    </vehicle>
    <vehicle id="85" depart="85.00">
        <route edges="196319629#0 367502765 9627667#0 9627667#2 9627667#3 196319541#0 367502763 291628001 291628000#0 291628000#1 291628000#5 291628000#7 -36841526#3 -36841526#2 -285151638#4 285151638#1"/>
    </vehicle>
    <vehicle id="86" depart="86.00">
        <route edges="-36841521#1 36841520#1 -36841522 -36841516#1 -437444726 196319542 24403609#0 24403609#1 196319534 -196319614 367502763 291628001 -251990941#2 31018630#6 -31018629"/>
    </vehicle>
    <vehicle id="88" depart="88.00">
        <route edges="36841516#2 36841516#4 -36841512#4 -36841512#2 -36841512#1 -36841512#0 -196319631#2 -196319631#1 36841507#0 36841507#1 436536486#0 436536486#1 -60642295#2"/>
    </vehicle>
    <vehicle id="89" depart="89.00">
        <route edges="291628000#8 -291628000#8 -291628000#7 -291628000#6 -291628000#4 -291628000#0 -291628001 -367502763 196319614 31018628 367502762#2 367502762#3 367502762#4 367502762#5 24403609#0 196319572#0 196319572#3"/>
    </vehicle>
    <vehicle id="91" depart="91.00">
        <route edges="196319615#1 196319615#2 446156279 196319623#3 446156283 196319576 367502762#4 367502762#5 24403609#0 24403609#1 196319534 -196319614 367502763 291628001 291628000#0 291628000#1 291628000#5 291628000#7 291628000#8 291628000#9 291628000#10 -118044191#1 404755770"/>
    </vehicle>
    <vehicle id="93" depart="93.00">
        <route edges="-62323382 -237101675 -110890089#1 -36841511 36841512#0 36841512#1 36841512#2 36841512#3 -36841516#4 -36841516#3 -36841516#1 -437444726 196319542 24403609#0 24403609#1 196319534 -196319614 367502763 291628001 291628000#0 291628000#1 291628000#5 291628000#7 291628000#8 291628000#9 291628000#10 291628000#11 291628000#12 436208058#8 36841539#0"/>
    </vehicle>
    <vehicle id="94" depart="94.00">
        <route edges="-124491537 -31018717#4 -31018717#1 390993054 196319615#1 196319615#2 446156279 196319623#3 446156283 196319576 367502762#4 367502762#5 24403609#0 24403609#1 196319534 -196319614 367502763 291628001 291628000#0 291628000#1 291628000#5 291628000#7 291628000#8 291628000#9 291628000#10 291628000#11 291628000#12 436208058#8 36841539#0 -36841541#1"/>
    </vehicle>
    <vehicle id="95" depart="95.00">
        <route edges="-291628000#8 -291628000#7 -291628000#6 -291628000#4 -291628000#0 -291628001 -367502763 196319614 31018628 367502762#2 367502762#3 367502762#4 24403600 196319556#0 36841516#0 36841522 -36841521#1 -36841520#0"/>
    </vehicle>
    <vehicle id="96" depart="96.00">
        <route edges="-62323382 -237101675 -110890089#1 -36841510 -36841509 -196319631#1 -196319631#0 196319590#0 392944086 392944088 392944089#0 196319536#0 196319527 -31536543#2"/>
    </vehicle>
    <vehicle id="97" depart="97.00">
        <route edges="142418956#1 -287233519#14 -287233519#13 -436208058#8 -291628000#12 -291628000#11 -291628000#10 -291628000#9 -291628000#8 -291628000#7 -291628000#6 -291628000#4 -291628000#0 118043428 36841524#0"/>
    </vehicle>
    <vehicle id="99" depart="99.00">
        <route edges="446153598#0 392944089#0 196319536#0 196319527 291628004#0 291628004#1 291628004#4 436208058#8 36841539#0 287233519#14 110890195#0 36841540"/>
    </vehicle>
</routes>
