<?xml version="1.0" encoding="UTF-8"?>

<!-- generated on 12/07/16 21:35:00 by SUMO netconvert Version 0.28.0
<?xml version="1.0" encoding="UTF-8"?>

<configuration xmlns:xsi="http://www.w3.org/2001/XMLSchema-instance" xsi:noNamespaceSchemaLocation="http://sumo.dlr.de/xsd/netconvertConfiguration.xsd">

    <input>
        <osm-files value="vm.osm"/>
    </input>

    <output>
        <output-file value="vm.net.xml"/>
    </output>

    <projection>
        <proj.utm value="true"/>
    </projection>

</configuration>
-->

<net version="0.27" xmlns:xsi="http://www.w3.org/2001/XMLSchema-instance" xsi:noNamespaceSchemaLocation="http://sumo.dlr.de/xsd/net_file.xsd">

    <location netOffset="-714610.19,-5484453.23" convBoundary="0.00,0.00,1415.31,1099.61" origBoundary="17.692117,49.410551,18.167080,49.546009" projParameter="+proj=utm +zone=33 +ellps=WGS84 +datum=WGS84 +units=m +no_defs"/>

    <type id="highway.bridleway" priority="1" numLanes="1" speed="2.78" allow="pedestrian" oneway="1" width="2.00"/>
    <type id="highway.bus_guideway" priority="1" numLanes="1" speed="8.33" allow="bus" oneway="1"/>
    <type id="highway.cycleway" priority="1" numLanes="1" speed="5.56" allow="bicycle" oneway="0" width="1.00"/>
    <type id="highway.footway" priority="1" numLanes="1" speed="2.78" allow="pedestrian" oneway="1" width="2.00"/>
    <type id="highway.ford" priority="1" numLanes="1" speed="2.78" allow="army" oneway="0"/>
    <type id="highway.living_street" priority="3" numLanes="1" speed="2.78" disallow="tram rail_urban rail rail_electric ship" oneway="0"/>
    <type id="highway.motorway" priority="13" numLanes="2" speed="44.44" allow="private emergency authority army vip passenger hov taxi bus coach delivery truck trailer motorcycle evehicle custom1 custom2" oneway="1"/>
    <type id="highway.motorway_link" priority="12" numLanes="1" speed="22.22" allow="private emergency authority army vip passenger hov taxi bus coach delivery truck trailer motorcycle evehicle custom1 custom2" oneway="1"/>
    <type id="highway.path" priority="1" numLanes="1" speed="2.78" allow="bicycle pedestrian" oneway="1" width="2.00"/>
    <type id="highway.pedestrian" priority="1" numLanes="1" speed="2.78" allow="pedestrian" oneway="1" width="2.00"/>
    <type id="highway.primary" priority="9" numLanes="2" speed="27.78" disallow="tram rail_urban rail rail_electric ship" oneway="0"/>
    <type id="highway.primary_link" priority="8" numLanes="1" speed="22.22" disallow="tram rail_urban rail rail_electric ship" oneway="0"/>
    <type id="highway.raceway" priority="14" numLanes="2" speed="83.33" allow="vip" oneway="0"/>
    <type id="highway.residential" priority="4" numLanes="1" speed="13.89" disallow="tram rail_urban rail rail_electric ship" oneway="0"/>
    <type id="highway.secondary" priority="7" numLanes="2" speed="27.78" disallow="tram rail_urban rail rail_electric ship" oneway="0"/>
    <type id="highway.secondary_link" priority="6" numLanes="1" speed="22.22" disallow="tram rail_urban rail rail_electric ship" oneway="0"/>
    <type id="highway.service" priority="2" numLanes="1" speed="5.56" allow="delivery bicycle pedestrian" oneway="0"/>
    <type id="highway.services" priority="1" numLanes="1" speed="8.33" disallow="tram rail_urban rail rail_electric ship" oneway="0"/>
    <type id="highway.stairs" priority="1" numLanes="1" speed="1.39" allow="pedestrian" oneway="1" width="2.00"/>
    <type id="highway.step" priority="1" numLanes="1" speed="1.39" allow="pedestrian" oneway="1" width="2.00"/>
    <type id="highway.steps" priority="1" numLanes="1" speed="1.39" allow="pedestrian" oneway="1" width="2.00"/>
    <type id="highway.tertiary" priority="6" numLanes="1" speed="22.22" disallow="tram rail_urban rail rail_electric ship" oneway="0"/>
    <type id="highway.tertiary_link" priority="5" numLanes="1" speed="22.22" disallow="tram rail_urban rail rail_electric ship" oneway="0"/>
    <type id="highway.track" priority="1" numLanes="1" speed="5.56" disallow="tram rail_urban rail rail_electric ship" oneway="0"/>
    <type id="highway.trunk" priority="11" numLanes="2" speed="27.78" disallow="tram rail_urban rail rail_electric bicycle pedestrian ship" oneway="0"/>
    <type id="highway.trunk_link" priority="10" numLanes="1" speed="22.22" disallow="tram rail_urban rail rail_electric bicycle pedestrian ship" oneway="0"/>
    <type id="highway.unclassified" priority="5" numLanes="1" speed="13.89" disallow="tram rail_urban rail rail_electric ship" oneway="0"/>
    <type id="highway.unsurfaced" priority="1" numLanes="1" speed="8.33" disallow="tram rail_urban rail rail_electric ship" oneway="0"/>
    <type id="railway.light_rail" priority="15" numLanes="1" speed="27.78" allow="rail_urban" oneway="1"/>
    <type id="railway.preserved" priority="15" numLanes="1" speed="27.78" allow="rail" oneway="1"/>
    <type id="railway.rail" priority="15" numLanes="1" speed="83.33" allow="rail rail_electric" oneway="1"/>
    <type id="railway.subway" priority="15" numLanes="1" speed="27.78" allow="rail_urban" oneway="1"/>
    <type id="railway.tram" priority="15" numLanes="1" speed="13.89" allow="tram" oneway="1"/>

    <edge id=":-10_0" function="internal">
        <lane id=":-10_0_0" index="0" disallow="tram rail_urban rail rail_electric ship" speed="13.89" length="5.56" shape="470.65,459.18 468.99,459.42 467.71,459.96 466.81,460.80 466.28,461.94"/>
    </edge>
    <edge id=":-10_1" function="internal">
        <lane id=":-10_1_0" index="0" disallow="tram rail_urban rail rail_electric ship" speed="13.89" length="6.36" shape="467.91,455.80 466.28,461.94"/>
        <lane id=":-10_1_1" index="1" disallow="tram rail_urban rail rail_electric ship" speed="13.89" length="6.36" shape="464.72,454.95 463.09,461.10"/>
    </edge>
    <edge id=":-12_0" function="internal">
        <lane id=":-12_0_0" index="0" disallow="tram rail_urban rail rail_electric ship" speed="13.89" length="0.33" shape="511.17,318.13 511.05,318.45"/>
        <lane id=":-12_0_1" index="1" disallow="tram rail_urban rail rail_electric ship" speed="13.89" length="0.33" shape="508.06,317.01 507.96,317.29"/>
    </edge>
    <edge id=":-12_2" function="internal">
        <lane id=":-12_2_0" index="0" disallow="tram rail_urban rail rail_electric ship" speed="13.89" length="2.41" shape="508.06,317.01 506.87,317.89 505.95,318.00"/>
    </edge>
    <edge id=":-12_6" function="internal">
        <lane id=":-12_6_0" index="0" speed="13.89" length="2.41" shape="505.95,318.00 505.32,317.34 504.96,315.89"/>
    </edge>
    <edge id=":-12_3" function="internal">
        <lane id=":-12_3_0" index="0" disallow="tram rail_urban rail rail_electric ship" speed="13.89" length="0.24" shape="501.78,314.98 501.85,314.78"/>
        <lane id=":-12_3_1" index="1" disallow="tram rail_urban rail rail_electric ship" speed="13.89" length="0.24" shape="504.87,316.14 504.96,315.89"/>
    </edge>
    <edge id=":-12_5" function="internal">
        <lane id=":-12_5_0" index="0" disallow="tram rail_urban rail rail_electric ship" speed="13.89" length="2.41" shape="504.87,316.14 506.08,315.27 506.99,315.17"/>
    </edge>
    <edge id=":-12_7" function="internal">
        <lane id=":-12_7_0" index="0" speed="13.89" length="2.41" shape="506.99,315.17 507.62,315.85 507.96,317.29"/>
    </edge>
    <edge id=":-14_0" function="internal">
        <lane id=":-14_0_0" index="0" disallow="tram rail_urban rail rail_electric ship" speed="13.89" length="5.05" shape="527.33,282.54 525.98,282.20 524.86,282.39 523.98,283.09 523.33,284.32"/>
    </edge>
    <edge id=":-14_1" function="internal">
        <lane id=":-14_1_0" index="0" disallow="tram rail_urban rail rail_electric ship" speed="13.89" length="16.11" shape="527.33,282.54 512.41,276.45"/>
    </edge>
    <edge id=":-14_2" function="internal">
        <lane id=":-14_2_0" index="0" disallow="tram rail_urban rail rail_electric ship" speed="13.89" length="7.63" shape="527.33,282.54 523.49,280.53 521.12,278.25"/>
    </edge>
    <edge id=":-14_3" function="internal">
        <lane id=":-14_3_0" index="0" disallow="tram rail_urban rail rail_electric ship" speed="13.89" length="2.41" shape="527.33,282.54 526.50,281.31 526.43,280.39"/>
    </edge>
    <edge id=":-14_16" function="internal">
        <lane id=":-14_16_0" index="0" speed="13.89" length="5.62" shape="521.12,278.25 520.21,275.68 520.78,272.84"/>
    </edge>
    <edge id=":-14_17" function="internal">
        <lane id=":-14_17_0" index="0" speed="13.89" length="2.41" shape="526.43,280.39 527.12,279.78 528.58,279.48"/>
    </edge>
    <edge id=":-14_4" function="internal">
        <lane id=":-14_4_0" index="0" disallow="tram rail_urban rail rail_electric ship" speed="13.89" length="7.92" shape="523.80,274.15 523.63,275.56 524.37,276.92 526.02,278.23 528.58,279.48"/>
    </edge>
    <edge id=":-14_5" function="internal">
        <lane id=":-14_5_0" index="0" disallow="tram rail_urban rail rail_electric ship" speed="13.89" length="9.74" shape="523.80,274.15 520.22,283.21"/>
    </edge>
    <edge id=":-14_6" function="internal">
        <lane id=":-14_6_0" index="0" disallow="tram rail_urban rail rail_electric ship" speed="13.89" length="6.54" shape="523.80,274.15 522.13,276.51 519.68,277.68 518.75,277.67"/>
    </edge>
    <edge id=":-14_7" function="internal">
        <lane id=":-14_7_0" index="0" disallow="tram rail_urban rail rail_electric ship" speed="13.89" length="2.73" shape="523.80,274.15 522.55,274.96 521.63,275.01 521.43,274.76"/>
    </edge>
    <edge id=":-14_18" function="internal">
        <lane id=":-14_18_0" index="0" speed="13.89" length="6.51" shape="518.75,277.67 516.44,277.66 512.41,276.45"/>
    </edge>
    <edge id=":-14_19" function="internal">
        <lane id=":-14_19_0" index="0" speed="13.89" length="2.09" shape="521.43,274.76 521.04,274.30 520.78,272.84"/>
    </edge>
    <edge id=":-14_8" function="internal">
        <lane id=":-14_8_0" index="0" disallow="tram rail_urban rail rail_electric ship" speed="13.89" length="7.88" shape="513.66,273.40 516.29,274.26 518.36,274.45 519.85,273.98 520.78,272.84"/>
    </edge>
    <edge id=":-14_9" function="internal">
        <lane id=":-14_9_0" index="0" disallow="tram rail_urban rail rail_electric ship" speed="13.89" length="16.11" shape="513.66,273.40 528.58,279.48"/>
    </edge>
    <edge id=":-14_10" function="internal">
        <lane id=":-14_10_0" index="0" disallow="tram rail_urban rail rail_electric ship" speed="13.89" length="7.46" shape="513.66,273.40 517.37,275.36 519.70,277.65"/>
    </edge>
    <edge id=":-14_11" function="internal">
        <lane id=":-14_11_0" index="0" disallow="tram rail_urban rail rail_electric ship" speed="13.89" length="2.41" shape="513.66,273.40 514.50,274.63 514.57,275.55"/>
    </edge>
    <edge id=":-14_20" function="internal">
        <lane id=":-14_20_0" index="0" speed="13.89" length="5.76" shape="519.70,277.65 520.65,280.26 520.22,283.21"/>
    </edge>
    <edge id=":-14_21" function="internal">
        <lane id=":-14_21_0" index="0" speed="13.89" length="2.41" shape="514.57,275.55 513.87,276.16 512.41,276.45"/>
    </edge>
    <edge id=":-14_12" function="internal">
        <lane id=":-14_12_0" index="0" disallow="tram rail_urban rail rail_electric ship" speed="13.89" length="5.41" shape="514.01,280.97 514.37,279.43 514.22,278.16 513.57,277.17 512.41,276.45"/>
    </edge>
    <edge id=":-14_13" function="internal">
        <lane id=":-14_13_0" index="0" disallow="tram rail_urban rail rail_electric ship" speed="13.89" length="10.74" shape="514.01,280.97 515.54,278.25 517.32,276.76 519.13,275.34 520.78,272.84"/>
    </edge>
    <edge id=":-14_14" function="internal">
        <lane id=":-14_14_0" index="0" disallow="tram rail_urban rail rail_electric ship" speed="13.89" length="4.79" shape="517.12,282.09 518.69,279.55 520.28,278.71"/>
    </edge>
    <edge id=":-14_15" function="internal">
        <lane id=":-14_15_0" index="0" disallow="tram rail_urban rail rail_electric ship" speed="13.89" length="2.52" shape="517.12,282.09 518.31,281.21 519.23,281.10 519.30,281.18"/>
    </edge>
    <edge id=":-14_22" function="internal">
        <lane id=":-14_22_0" index="0" speed="13.89" length="8.59" shape="520.28,278.71 521.12,278.26 524.42,278.24 528.58,279.48"/>
    </edge>
    <edge id=":-14_23" function="internal">
        <lane id=":-14_23_0" index="0" speed="13.89" length="2.30" shape="519.30,281.18 519.86,281.76 520.22,283.21"/>
    </edge>
    <edge id=":-16_0" function="internal">
        <lane id=":-16_0_0" index="0" disallow="tram rail_urban rail rail_electric ship" speed="13.89" length="0.15" shape="530.34,259.08 530.32,259.11 530.31,259.14 530.30,259.17 530.28,259.21"/>
    </edge>
    <edge id=":-16_1" function="internal">
        <lane id=":-16_1_0" index="0" disallow="tram rail_urban rail rail_electric ship" speed="13.89" length="2.41" shape="530.34,259.08 529.04,259.80 528.12,259.80"/>
    </edge>
    <edge id=":-16_4" function="internal">
        <lane id=":-16_4_0" index="0" speed="13.89" length="2.41" shape="528.12,259.80 527.57,259.05 527.40,257.57"/>
    </edge>
    <edge id=":-16_2" function="internal">
        <lane id=":-16_2_0" index="0" disallow="tram rail_urban rail rail_electric ship" speed="13.89" length="0.35" shape="527.26,257.90 527.40,257.57"/>
    </edge>
    <edge id=":-16_3" function="internal">
        <lane id=":-16_3_0" index="0" disallow="tram rail_urban rail rail_electric ship" speed="13.89" length="2.41" shape="527.26,257.90 528.50,257.09 529.43,257.04"/>
    </edge>
    <edge id=":-16_5" function="internal">
        <lane id=":-16_5_0" index="0" speed="13.89" length="2.41" shape="529.43,257.04 530.02,257.75 530.28,259.21"/>
    </edge>
    <edge id=":-8_0" function="internal">
        <lane id=":-8_0_0" index="0" disallow="tram rail_urban rail rail_electric ship" speed="13.89" length="7.07" shape="470.31,446.74 470.18,448.16 470.50,449.71 471.26,451.40 472.48,453.24"/>
    </edge>
    <edge id=":-8_1" function="internal">
        <lane id=":-8_1_0" index="0" disallow="tram rail_urban rail rail_electric ship" speed="13.89" length="7.56" shape="470.31,446.74 468.37,454.05"/>
        <lane id=":-8_1_1" index="1" disallow="tram rail_urban rail rail_electric ship" speed="13.89" length="7.56" shape="467.12,445.89 465.18,453.20"/>
    </edge>
    <edge id=":1331959459_0" function="internal">
        <lane id=":1331959459_0_0" index="0" disallow="tram rail_urban rail rail_electric ship" speed="13.89" length="9.50" shape="1117.41,304.78 1116.92,295.29"/>
    </edge>
    <edge id=":1331959459_1" function="internal">
        <lane id=":1331959459_1_0" index="0" disallow="tram rail_urban rail rail_electric ship" speed="13.89" length="5.29" shape="1117.41,304.78 1117.66,301.94 1118.77,299.88 1118.85,299.83"/>
    </edge>
    <edge id=":1331959459_2" function="internal">
        <lane id=":1331959459_2_0" index="0" disallow="tram rail_urban rail rail_electric ship" speed="13.89" length="2.41" shape="1117.41,304.78 1118.17,303.50 1118.97,303.05"/>
    </edge>
    <edge id=":1331959459_9" function="internal">
        <lane id=":1331959459_9_0" index="0" speed="13.89" length="5.09" shape="1118.85,299.83 1120.72,298.59 1123.52,298.07"/>
    </edge>
    <edge id=":1331959459_10" function="internal">
        <lane id=":1331959459_10_0" index="0" speed="13.89" length="2.41" shape="1118.97,303.05 1119.82,303.42 1120.70,304.61"/>
    </edge>
    <edge id=":1331959459_3" function="internal">
        <lane id=":1331959459_3_0" index="0" disallow="tram rail_urban rail rail_electric ship" speed="13.89" length="5.01" shape="1123.66,301.37 1122.30,301.62 1121.36,302.24 1120.83,303.24 1120.70,304.61"/>
    </edge>
    <edge id=":1331959459_4" function="internal">
        <lane id=":1331959459_4_0" index="0" disallow="tram rail_urban rail rail_electric ship" speed="13.89" length="10.32" shape="1123.66,301.37 1120.83,301.09 1118.77,299.98 1117.46,298.05 1116.92,295.29"/>
    </edge>
    <edge id=":1331959459_5" function="internal">
        <lane id=":1331959459_5_0" index="0" disallow="tram rail_urban rail rail_electric ship" speed="13.89" length="4.82" shape="1123.66,301.37 1122.39,300.59 1121.94,299.79 1122.32,298.95 1123.52,298.07"/>
    </edge>
    <edge id=":1331959459_6" function="internal">
        <lane id=":1331959459_6_0" index="0" disallow="tram rail_urban rail rail_electric ship" speed="13.89" length="5.04" shape="1120.21,295.12 1120.48,296.46 1121.12,297.40 1122.13,297.94 1123.52,298.07"/>
    </edge>
    <edge id=":1331959459_7" function="internal">
        <lane id=":1331959459_7_0" index="0" disallow="tram rail_urban rail rail_electric ship" speed="13.89" length="9.50" shape="1120.21,295.12 1120.70,304.61"/>
    </edge>
    <edge id=":1331959459_8" function="internal">
        <lane id=":1331959459_8_0" index="0" disallow="tram rail_urban rail rail_electric ship" speed="13.89" length="2.41" shape="1120.21,295.12 1119.45,296.40 1118.65,296.86"/>
    </edge>
    <edge id=":1331959459_11" function="internal">
        <lane id=":1331959459_11_0" index="0" speed="13.89" length="2.41" shape="1118.65,296.86 1117.80,296.49 1116.92,295.29"/>
    </edge>
    <edge id=":1331959461_0" function="internal">
        <lane id=":1331959461_0_0" index="0" disallow="tram rail_urban rail rail_electric ship" speed="13.89" length="4.82" shape="1351.16,298.72 1352.08,299.89 1352.21,300.80 1351.56,301.45 1350.13,301.85"/>
    </edge>
    <edge id=":1558585804_0" function="internal">
        <lane id=":1558585804_0_0" index="0" disallow="tram rail_urban rail rail_electric ship" speed="13.89" length="4.82" shape="32.60,760.01 31.16,759.65 30.50,759.01 30.61,758.10 31.50,756.90"/>
    </edge>
    <edge id=":18008553_0" function="internal">
        <lane id=":18008553_0_0" index="0" allow="delivery bicycle pedestrian" speed="9.72" length="3.32" shape="303.89,888.98 301.14,890.83"/>
    </edge>
    <edge id=":18008553_1" function="internal">
        <lane id=":18008553_1_0" index="0" disallow="tram rail_urban rail rail_electric ship" speed="13.89" length="3.00" shape="303.89,888.98 302.35,891.55"/>
        <lane id=":18008553_1_1" index="1" disallow="tram rail_urban rail rail_electric ship" speed="13.89" length="3.00" shape="301.06,887.28 299.52,889.86"/>
    </edge>
    <edge id=":1822816564_0" function="internal">
        <lane id=":1822816564_0_0" index="0" allow="rail rail_electric" speed="83.33" length="5.00" shape="26.05,271.52 26.25,266.52"/>
    </edge>
    <edge id=":1822816564_1" function="internal">
        <lane id=":1822816564_1_0" index="0" allow="rail rail_electric" speed="83.33" length="6.02" shape="26.05,271.52 26.61,270.01 27.70,269.29 28.91,268.59 29.81,267.14"/>
    </edge>
    <edge id=":1822816873_0" function="internal">
        <lane id=":1822816873_0_0" index="0" allow="rail rail_electric" speed="83.33" length="2.79" shape="25.35,355.57 25.16,352.79"/>
    </edge>
    <edge id=":1822816873_1" function="internal">
        <lane id=":1822816873_1_0" index="0" allow="rail rail_electric" speed="83.33" length="2.22" shape="24.65,352.82 24.93,353.60 25.11,353.86 25.19,353.59 25.16,352.79"/>
    </edge>
    <edge id=":1822817008_0" function="internal">
        <lane id=":1822817008_0_0" index="0" allow="rail rail_electric" speed="83.33" length="6.18" shape="94.96,439.90 97.47,434.25"/>
    </edge>
    <edge id=":1822817008_1" function="internal">
        <lane id=":1822817008_1_0" index="0" allow="rail rail_electric" speed="83.33" length="5.06" shape="98.35,439.22 98.02,437.76 97.95,436.72 97.85,435.69 97.47,434.25"/>
    </edge>
    <edge id=":1822817044_0" function="internal">
        <lane id=":1822817044_0_0" index="0" allow="rail rail_electric" speed="50.00" length="16.90" shape="26.66,429.17 29.98,445.74"/>
    </edge>
    <edge id=":1822817044_1" function="internal">
        <lane id=":1822817044_1_0" index="0" allow="rail rail_electric" speed="16.67" length="25.04" shape="21.85,422.06 29.98,445.74"/>
    </edge>
    <edge id=":1822817050_0" function="internal">
        <lane id=":1822817050_0_0" index="0" allow="rail rail_electric" speed="83.33" length="5.00" shape="45.70,463.57 47.10,468.37"/>
    </edge>
    <edge id=":1822817050_1" function="internal">
        <lane id=":1822817050_1_0" index="0" allow="rail rail_electric" speed="83.33" length="2.77" shape="45.70,463.57 42.95,463.24"/>
    </edge>
    <edge id=":1822817083_0" function="internal">
        <lane id=":1822817083_0_0" index="0" allow="rail rail_electric" speed="16.67" length="23.54" shape="30.37,447.06 37.18,469.59"/>
    </edge>
    <edge id=":1822817083_1" function="internal">
        <lane id=":1822817083_1_0" index="0" allow="rail rail_electric" speed="50.00" length="15.34" shape="30.70,455.68 37.18,469.59"/>
    </edge>
    <edge id=":1822817101_0" function="internal">
        <lane id=":1822817101_0_0" index="0" allow="rail rail_electric" speed="50.00" length="14.36" shape="42.97,463.44 45.15,477.63"/>
    </edge>
    <edge id=":1822817101_1" function="internal">
        <lane id=":1822817101_1_0" index="0" allow="rail rail_electric" speed="16.67" length="20.30" shape="38.80,458.34 45.15,477.63"/>
    </edge>
    <edge id=":1822817106_0" function="internal">
        <lane id=":1822817106_0_0" index="0" allow="rail rail_electric" speed="50.00" length="2.23" shape="46.57,494.82 47.15,492.67"/>
    </edge>
    <edge id=":1822817106_1" function="internal">
        <lane id=":1822817106_1_0" index="0" allow="rail rail_electric" speed="16.67" length="5.24" shape="46.57,494.82 46.90,496.30 46.78,497.38 46.63,498.47 46.86,499.99"/>
    </edge>
    <edge id=":1822817128_0" function="internal">
        <lane id=":1822817128_0_0" index="0" allow="rail rail_electric" speed="16.67" length="23.83" shape="47.52,485.52 54.44,508.33"/>
    </edge>
    <edge id=":1822817128_1" function="internal">
        <lane id=":1822817128_1_0" index="0" allow="rail rail_electric" speed="50.00" length="17.07" shape="47.24,492.85 54.44,508.33"/>
    </edge>
    <edge id=":1822817148_0" function="internal">
        <lane id=":1822817148_0_0" index="0" allow="rail rail_electric" speed="83.33" length="3.18" shape="97.33,528.24 97.75,529.36 98.05,529.73 98.21,529.37 98.24,528.26"/>
    </edge>
    <edge id=":1822817148_1" function="internal">
        <lane id=":1822817148_1_0" index="0" allow="rail rail_electric" speed="83.33" length="3.58" shape="97.33,528.24 98.45,531.63"/>
    </edge>
    <edge id=":1822817158_0" function="internal">
        <lane id=":1822817158_0_0" index="0" allow="rail rail_electric" speed="83.33" length="0.29" shape="84.16,538.42 84.25,538.69"/>
    </edge>
    <edge id=":1822817166_0" function="internal">
        <lane id=":1822817166_0_0" index="0" allow="rail rail_electric" speed="83.33" length="5.70" shape="44.17,572.42 44.25,570.79 44.85,569.67 45.37,568.56 45.24,566.99"/>
    </edge>
    <edge id=":1822817166_1" function="internal">
        <lane id=":1822817166_1_0" index="0" allow="rail rail_electric" speed="83.33" length="5.05" shape="47.50,571.49 46.88,570.13 46.34,569.25 45.81,568.37 45.24,566.99"/>
    </edge>
    <edge id=":1822817170_0" function="internal">
        <lane id=":1822817170_0_0" index="0" allow="rail rail_electric" speed="50.00" length="6.25" shape="53.59,577.76 56.60,572.28"/>
    </edge>
    <edge id=":1822817170_1" function="internal">
        <lane id=":1822817170_1_0" index="0" allow="rail rail_electric" speed="16.67" length="5.07" shape="56.98,577.32 56.79,575.83 56.82,574.79 56.84,573.76 56.60,572.28"/>
    </edge>
    <edge id=":1822817181_0" function="internal">
        <lane id=":1822817181_0_0" index="0" allow="rail rail_electric" speed="83.33" length="2.68" shape="50.45,578.80 51.03,581.41"/>
    </edge>
    <edge id=":1822817186_0" function="internal">
        <lane id=":1822817186_0_0" index="0" allow="rail rail_electric" speed="83.33" length="16.32" shape="94.44,569.11 100.01,584.46"/>
    </edge>
    <edge id=":1822817186_1" function="internal">
        <lane id=":1822817186_1_0" index="0" allow="rail rail_electric" speed="83.33" length="16.37" shape="91.25,570.63 100.01,584.46"/>
    </edge>
    <edge id=":1822817200_0" function="internal">
        <lane id=":1822817200_0_0" index="0" allow="rail rail_electric" speed="83.33" length="1.97" shape="54.40,597.55 54.56,598.26 54.67,598.50 54.71,598.26 54.69,597.53"/>
    </edge>
    <edge id=":1822817200_1" function="internal">
        <lane id=":1822817200_1_0" index="0" allow="rail rail_electric" speed="83.33" length="3.30" shape="54.40,597.55 54.99,600.80"/>
    </edge>
    <edge id=":1822817242_0" function="internal">
        <lane id=":1822817242_0_0" index="0" allow="rail rail_electric" speed="83.33" length="21.95" shape="161.76,648.76 178.85,662.53"/>
    </edge>
    <edge id=":1822817242_1" function="internal">
        <lane id=":1822817242_1_0" index="0" allow="rail rail_electric" speed="83.33" length="21.98" shape="159.84,651.50 178.85,662.53"/>
    </edge>
    <edge id=":1822817264_0" function="internal">
        <lane id=":1822817264_0_0" index="0" disallow="tram rail_urban rail rail_electric ship" speed="13.89" length="5.00" shape="51.44,755.09 46.54,756.12"/>
    </edge>
    <edge id=":1822817264_1" function="internal">
        <lane id=":1822817264_1_0" index="0" disallow="tram rail_urban rail rail_electric ship" speed="13.89" length="4.96" shape="45.83,752.90 50.69,751.88"/>
    </edge>
    <edge id=":1822817264_2" function="internal">
        <lane id=":1822817264_2_0" index="0" allow="rail rail_electric" speed="16.67" length="11.91" shape="46.90,759.78 49.99,748.28"/>
    </edge>
    <edge id=":1822817269_0" function="internal">
        <lane id=":1822817269_0_0" index="0" disallow="tram rail_urban rail rail_electric ship" speed="13.89" length="4.85" shape="46.35,756.16 41.61,757.18"/>
    </edge>
    <edge id=":1822817269_1" function="internal">
        <lane id=":1822817269_1_0" index="0" allow="rail rail_electric" speed="83.33" length="12.04" shape="45.07,749.36 41.81,760.95"/>
    </edge>
    <edge id=":1822817269_2" function="internal">
        <lane id=":1822817269_2_0" index="0" disallow="tram rail_urban rail rail_electric ship" speed="13.89" length="5.01" shape="40.74,753.99 45.64,752.94"/>
    </edge>
    <edge id=":2066621812_0" function="internal">
        <lane id=":2066621812_0_0" index="0" disallow="tram rail_urban rail rail_electric ship" speed="13.89" length="5.21" shape="614.79,111.76 617.38,107.24"/>
    </edge>
    <edge id=":2066621830_0" function="internal">
        <lane id=":2066621830_0_0" index="0" disallow="tram rail_urban rail rail_electric ship" speed="13.89" length="5.40" shape="601.22,114.46 602.45,115.42 603.04,116.39 603.63,117.37 604.85,118.34"/>
    </edge>
    <edge id=":2066621830_1" function="internal">
        <lane id=":2066621830_1_0" index="0" disallow="tram rail_urban rail rail_electric ship" speed="13.89" length="4.82" shape="601.22,114.46 601.91,115.77 601.88,116.70 601.12,117.22 599.64,117.35"/>
    </edge>
    <edge id=":2066621839_0" function="internal">
        <lane id=":2066621839_0_0" index="0" disallow="tram rail_urban rail rail_electric ship" speed="13.89" length="4.32" shape="475.26,460.03 474.08,459.53 473.24,459.24 472.37,459.13 471.10,459.16"/>
    </edge>
    <edge id=":2066621839_1" function="internal">
        <lane id=":2066621839_1_0" index="0" disallow="tram rail_urban rail rail_electric ship" speed="13.89" length="4.82" shape="475.26,460.03 474.44,458.79 474.38,457.87 475.08,457.27 476.54,456.99"/>
    </edge>
    <edge id=":2066621839_2" function="internal">
        <lane id=":2066621839_2_0" index="0" disallow="tram rail_urban rail rail_electric ship" speed="13.89" length="3.80" shape="473.60,454.70 474.29,455.59 474.85,456.13 475.52,456.54 476.54,456.99"/>
    </edge>
    <edge id=":2066621839_3" function="internal">
        <lane id=":2066621839_3_0" index="0" disallow="tram rail_urban rail rail_electric ship" speed="13.89" length="7.24" shape="473.60,454.70 474.63,456.55 474.56,457.90 473.38,458.77 471.10,459.16"/>
    </edge>
    <edge id=":2066621943_0" function="internal">
        <lane id=":2066621943_0_0" index="0" disallow="tram rail_urban rail rail_electric ship" speed="13.89" length="0.19" shape="469.61,259.00 469.43,258.93"/>
    </edge>
    <edge id=":2066621943_1" function="internal">
        <lane id=":2066621943_1_0" index="0" disallow="tram rail_urban rail rail_electric ship" speed="13.89" length="2.41" shape="469.61,259.00 468.78,257.77 468.71,256.85"/>
    </edge>
    <edge id=":2066621943_4" function="internal">
        <lane id=":2066621943_4_0" index="0" speed="13.89" length="2.41" shape="468.71,256.85 469.40,256.24 470.86,255.94"/>
    </edge>
    <edge id=":2066621943_2" function="internal">
        <lane id=":2066621943_2_0" index="0" disallow="tram rail_urban rail rail_electric ship" speed="13.89" length="0.30" shape="470.58,255.83 470.86,255.94"/>
    </edge>
    <edge id=":2066621943_3" function="internal">
        <lane id=":2066621943_3_0" index="0" disallow="tram rail_urban rail rail_electric ship" speed="13.89" length="2.41" shape="470.58,255.83 471.45,257.04 471.55,257.95"/>
    </edge>
    <edge id=":2066621943_5" function="internal">
        <lane id=":2066621943_5_0" index="0" speed="13.89" length="2.41" shape="471.55,257.95 470.88,258.59 469.43,258.93"/>
    </edge>
    <edge id=":2066622023_0" function="internal">
        <lane id=":2066622023_0_0" index="0" disallow="tram rail_urban rail rail_electric ship" speed="13.89" length="5.23" shape="673.21,28.24 670.54,32.74"/>
    </edge>
    <edge id=":2066622075_0" function="internal">
        <lane id=":2066622075_0_0" index="0" disallow="tram rail_urban rail rail_electric ship" speed="13.89" length="5.17" shape="623.59,110.10 620.85,114.49"/>
    </edge>
    <edge id=":2408614831_0" function="internal">