<?xml version="1.0" encoding="UTF-8"?>

<!-- generated on 12/05/16 17:16:56 by SUMO netconvert Version 0.28.0
<?xml version="1.0" encoding="UTF-8"?>

<configuration xmlns:xsi="http://www.w3.org/2001/XMLSchema-instance" xsi:noNamespaceSchemaLocation="http://sumo.dlr.de/xsd/netconvertConfiguration.xsd">

    <input>
        <osm-files value="vm.osm"/>
    </input>

    <output>
        <output-file value="vm.net.xml"/>
    </output>

    <projection>
        <proj.utm value="true"/>
    </projection>

</configuration>
-->

<net version="0.27" xmlns:xsi="http://www.w3.org/2001/XMLSchema-instance" xsi:noNamespaceSchemaLocation="http://sumo.dlr.de/xsd/net_file.xsd">

    <location netOffset="-713560.78,-5483496.37" convBoundary="0.00,0.00,3240.76,2615.93" origBoundary="17.692117,49.410551,18.167080,49.546009" projParameter="+proj=utm +zone=33 +ellps=WGS84 +datum=WGS84 +units=m +no_defs"/>

    <type id="highway.bridleway" priority="1" numLanes="1" speed="2.78" allow="pedestrian" oneway="1" width="2.00"/>
    <type id="highway.bus_guideway" priority="1" numLanes="1" speed="8.33" allow="bus" oneway="1"/>
    <type id="highway.cycleway" priority="1" numLanes="1" speed="5.56" allow="bicycle" oneway="0" width="1.00"/>
    <type id="highway.footway" priority="1" numLanes="1" speed="2.78" allow="pedestrian" oneway="1" width="2.00"/>
    <type id="highway.ford" priority="1" numLanes="1" speed="2.78" allow="army" oneway="0"/>
    <type id="highway.living_street" priority="3" numLanes="1" speed="2.78" disallow="tram rail_urban rail rail_electric ship" oneway="0"/>
    <type id="highway.motorway" priority="13" numLanes="2" speed="44.44" allow="private emergency authority army vip passenger hov taxi bus coach delivery truck trailer motorcycle evehicle custom1 custom2" oneway="1"/>
    <type id="highway.motorway_link" priority="12" numLanes="1" speed="22.22" allow="private emergency authority army vip passenger hov taxi bus coach delivery truck trailer motorcycle evehicle custom1 custom2" oneway="1"/>
    <type id="highway.path" priority="1" numLanes="1" speed="2.78" allow="bicycle pedestrian" oneway="1" width="2.00"/>
    <type id="highway.pedestrian" priority="1" numLanes="1" speed="2.78" allow="pedestrian" oneway="1" width="2.00"/>
    <type id="highway.primary" priority="9" numLanes="2" speed="27.78" disallow="tram rail_urban rail rail_electric ship" oneway="0"/>
    <type id="highway.primary_link" priority="8" numLanes="1" speed="22.22" disallow="tram rail_urban rail rail_electric ship" oneway="0"/>
    <type id="highway.raceway" priority="14" numLanes="2" speed="83.33" allow="vip" oneway="0"/>
    <type id="highway.residential" priority="4" numLanes="1" speed="13.89" disallow="tram rail_urban rail rail_electric ship" oneway="0"/>
    <type id="highway.secondary" priority="7" numLanes="2" speed="27.78" disallow="tram rail_urban rail rail_electric ship" oneway="0"/>
    <type id="highway.secondary_link" priority="6" numLanes="1" speed="22.22" disallow="tram rail_urban rail rail_electric ship" oneway="0"/>
    <type id="highway.service" priority="2" numLanes="1" speed="5.56" allow="delivery bicycle pedestrian" oneway="0"/>
    <type id="highway.services" priority="1" numLanes="1" speed="8.33" disallow="tram rail_urban rail rail_electric ship" oneway="0"/>
    <type id="highway.stairs" priority="1" numLanes="1" speed="1.39" allow="pedestrian" oneway="1" width="2.00"/>
    <type id="highway.step" priority="1" numLanes="1" speed="1.39" allow="pedestrian" oneway="1" width="2.00"/>
    <type id="highway.steps" priority="1" numLanes="1" speed="1.39" allow="pedestrian" oneway="1" width="2.00"/>
    <type id="highway.tertiary" priority="6" numLanes="1" speed="22.22" disallow="tram rail_urban rail rail_electric ship" oneway="0"/>
    <type id="highway.tertiary_link" priority="5" numLanes="1" speed="22.22" disallow="tram rail_urban rail rail_electric ship" oneway="0"/>
    <type id="highway.track" priority="1" numLanes="1" speed="5.56" disallow="tram rail_urban rail rail_electric ship" oneway="0"/>
    <type id="highway.trunk" priority="11" numLanes="2" speed="27.78" disallow="tram rail_urban rail rail_electric bicycle pedestrian ship" oneway="0"/>
    <type id="highway.trunk_link" priority="10" numLanes="1" speed="22.22" disallow="tram rail_urban rail rail_electric bicycle pedestrian ship" oneway="0"/>
    <type id="highway.unclassified" priority="5" numLanes="1" speed="13.89" disallow="tram rail_urban rail rail_electric ship" oneway="0"/>
    <type id="highway.unsurfaced" priority="1" numLanes="1" speed="8.33" disallow="tram rail_urban rail rail_electric ship" oneway="0"/>
    <type id="railway.light_rail" priority="15" numLanes="1" speed="27.78" allow="rail_urban" oneway="1"/>
    <type id="railway.preserved" priority="15" numLanes="1" speed="27.78" allow="rail" oneway="1"/>
    <type id="railway.rail" priority="15" numLanes="1" speed="83.33" allow="rail rail_electric" oneway="1"/>
    <type id="railway.subway" priority="15" numLanes="1" speed="27.78" allow="rail_urban" oneway="1"/>
    <type id="railway.tram" priority="15" numLanes="1" speed="13.89" allow="tram" oneway="1"/>

    <edge id=":-10_0" function="internal">
        <lane id=":-10_0_0" index="0" disallow="tram rail_urban rail rail_electric ship" speed="13.89" length="5.56" shape="1520.07,1416.04 1518.41,1416.28 1517.13,1416.82 1516.22,1417.66 1515.69,1418.80"/>
    </edge>
    <edge id=":-10_1" function="internal">
        <lane id=":-10_1_0" index="0" disallow="tram rail_urban rail rail_electric ship" speed="13.89" length="6.36" shape="1517.32,1412.66 1515.69,1418.80"/>
        <lane id=":-10_1_1" index="1" disallow="tram rail_urban rail rail_electric ship" speed="13.89" length="6.36" shape="1514.14,1411.81 1512.50,1417.96"/>
    </edge>
    <edge id=":-12_0" function="internal">
        <lane id=":-12_0_0" index="0" disallow="tram rail_urban rail rail_electric ship" speed="10.42" length="0.22" shape="1586.16,1212.74 1586.05,1212.94"/>
    </edge>
    <edge id=":-23447_0" function="internal">
        <lane id=":-23447_0_0" index="0" disallow="tram rail_urban rail rail_electric ship" speed="11.11" length="5.49" shape="1574.50,1239.35 1572.96,1238.95 1571.67,1239.07 1570.63,1239.71 1569.86,1240.85"/>
    </edge>
    <edge id=":-23447_1" function="internal">
        <lane id=":-23447_1_0" index="0" disallow="tram rail_urban rail rail_electric ship" speed="13.89" length="6.69" shape="1574.50,1239.35 1568.34,1236.74"/>
    </edge>
    <edge id=":-23447_2" function="internal">
        <lane id=":-23447_2_0" index="0" disallow="tram rail_urban rail rail_electric ship" speed="13.89" length="2.52" shape="1574.50,1239.35 1573.65,1238.13 1573.57,1237.21 1573.64,1237.14"/>
    </edge>
    <edge id=":-23447_9" function="internal">
        <lane id=":-23447_9_0" index="0" speed="13.89" length="2.30" shape="1573.64,1237.14 1574.25,1236.59 1575.70,1236.27"/>
    </edge>
    <edge id=":-23447_3" function="internal">
        <lane id=":-23447_3_0" index="0" disallow="tram rail_urban rail rail_electric ship" speed="11.11" length="5.15" shape="1574.18,1232.16 1573.69,1233.51 1573.78,1234.65 1574.45,1235.57 1575.70,1236.27"/>
    </edge>
    <edge id=":-23447_4" function="internal">
        <lane id=":-23447_4_0" index="0" disallow="tram rail_urban rail rail_electric ship" speed="8.33" length="9.71" shape="1574.18,1232.16 1569.86,1240.85"/>
    </edge>
    <edge id=":-23447_5" function="internal">
        <lane id=":-23447_5_0" index="0" disallow="tram rail_urban rail rail_electric ship" speed="11.11" length="8.08" shape="1574.18,1232.16 1572.65,1234.64 1571.16,1236.22 1569.72,1236.93 1568.34,1236.74"/>
    </edge>
    <edge id=":-23447_6" function="internal">
        <lane id=":-23447_6_0" index="0" disallow="tram rail_urban rail rail_electric ship" speed="13.89" length="6.49" shape="1569.72,1233.74 1575.70,1236.27"/>
    </edge>
    <edge id=":-23447_7" function="internal">
        <lane id=":-23447_7_0" index="0" disallow="tram rail_urban rail rail_electric ship" speed="11.11" length="2.95" shape="1569.72,1233.74 1570.78,1234.67 1571.16,1236.17"/>
    </edge>
    <edge id=":-23447_8" function="internal">
        <lane id=":-23447_8_0" index="0" disallow="tram rail_urban rail rail_electric ship" speed="13.89" length="2.41" shape="1569.72,1233.74 1570.50,1235.01 1570.53,1235.93"/>
    </edge>
    <edge id=":-23447_10" function="internal">
        <lane id=":-23447_10_0" index="0" speed="11.11" length="4.89" shape="1571.16,1236.17 1570.85,1238.23 1569.86,1240.85"/>
    </edge>
    <edge id=":-23447_11" function="internal">
        <lane id=":-23447_11_0" index="0" speed="13.89" length="2.41" shape="1570.53,1235.93 1569.81,1236.51 1568.34,1236.74"/>
    </edge>
    <edge id=":-23450_0" function="internal">
        <lane id=":-23450_0_0" index="0" disallow="tram rail_urban rail rail_electric ship" speed="13.89" length="6.26" shape="1563.90,1234.69 1558.17,1232.18"/>
    </edge>
    <edge id=":-23450_1" function="internal">
        <lane id=":-23450_1_0" index="0" disallow="tram rail_urban rail rail_electric ship" speed="10.42" length="2.96" shape="1563.90,1234.69 1562.83,1233.76 1562.45,1232.27"/>
    </edge>
    <edge id=":-23450_2" function="internal">
        <lane id=":-23450_2_0" index="0" disallow="tram rail_urban rail rail_electric ship" speed="13.89" length="2.41" shape="1563.90,1234.69 1563.12,1233.43 1563.09,1232.51"/>
    </edge>
    <edge id=":-23450_9" function="internal">
        <lane id=":-23450_9_0" index="0" speed="10.42" length="4.89" shape="1562.45,1232.27 1562.76,1230.20 1563.74,1227.58"/>
    </edge>
    <edge id=":-23450_10" function="internal">
        <lane id=":-23450_10_0" index="0" speed="13.89" length="2.41" shape="1563.09,1232.51 1563.81,1231.93 1565.28,1231.70"/>
    </edge>
    <edge id=":-23450_3" function="internal">
        <lane id=":-23450_3_0" index="0" disallow="tram rail_urban rail rail_electric ship" speed="10.42" length="5.18" shape="1559.44,1229.14 1560.84,1229.51 1562.02,1229.38 1562.99,1228.73 1563.74,1227.58"/>
    </edge>
    <edge id=":-23450_4" function="internal">
        <lane id=":-23450_4_0" index="0" disallow="tram rail_urban rail rail_electric ship" speed="13.89" length="6.38" shape="1559.44,1229.14 1565.28,1231.70"/>
    </edge>
    <edge id=":-23450_5" function="internal">
        <lane id=":-23450_5_0" index="0" disallow="tram rail_urban rail rail_electric ship" speed="13.89" length="2.41" shape="1559.44,1229.14 1560.26,1230.37 1560.33,1231.29"/>
    </edge>
    <edge id=":-23450_11" function="internal">
        <lane id=":-23450_11_0" index="0" speed="13.89" length="2.41" shape="1560.33,1231.29 1559.63,1231.90 1558.17,1232.18"/>
    </edge>
    <edge id=":-23450_6" function="internal">
        <lane id=":-23450_6_0" index="0" disallow="tram rail_urban rail rail_electric ship" speed="10.42" length="5.04" shape="1559.77,1236.27 1560.16,1234.93 1560.02,1233.81 1559.36,1232.89 1558.17,1232.18"/>
    </edge>
    <edge id=":-23450_7" function="internal">
        <lane id=":-23450_7_0" index="0" disallow="tram rail_urban rail rail_electric ship" speed="6.94" length="9.55" shape="1559.77,1236.27 1563.74,1227.58"/>
    </edge>
    <edge id=":-23450_8" function="internal">
        <lane id=":-23450_8_0" index="0" disallow="tram rail_urban rail rail_electric ship" speed="10.42" length="7.90" shape="1559.77,1236.27 1561.12,1233.78 1562.49,1232.19 1563.88,1231.49 1565.28,1231.70"/>
    </edge>
    <edge id=":-8_0" function="internal">
        <lane id=":-8_0_0" index="0" disallow="tram rail_urban rail rail_electric ship" speed="13.89" length="7.07" shape="1519.72,1403.60 1519.59,1405.02 1519.91,1406.57 1520.68,1408.27 1521.90,1410.10"/>
    </edge>
    <edge id=":-8_1" function="internal">
        <lane id=":-8_1_0" index="0" disallow="tram rail_urban rail rail_electric ship" speed="13.89" length="7.56" shape="1519.72,1403.60 1517.79,1410.91"/>
        <lane id=":-8_1_1" index="1" disallow="tram rail_urban rail rail_electric ship" speed="13.89" length="7.56" shape="1516.53,1402.76 1514.60,1410.07"/>
    </edge>
    <edge id=":1264747713_0" function="internal">
        <lane id=":1264747713_0_0" index="0" disallow="tram rail_urban rail rail_electric ship" speed="13.89" length="7.07" shape="920.29,529.69 919.26,531.35 917.85,532.06 916.44,532.77 915.38,534.42"/>
    </edge>
    <edge id=":1264747713_1" function="internal">
        <lane id=":1264747713_1_0" index="0" disallow="tram rail_urban rail rail_electric ship" speed="13.89" length="3.31" shape="917.12,528.76 916.42,530.05 915.29,530.69 914.75,530.69"/>
    </edge>
    <edge id=":1264747713_2" function="internal">
        <lane id=":1264747713_2_0" index="0" disallow="tram rail_urban rail rail_electric ship" speed="13.89" length="2.41" shape="917.12,528.76 915.98,529.71 915.07,529.87"/>
    </edge>
    <edge id=":1264747713_9" function="internal">
        <lane id=":1264747713_9_0" index="0" speed="13.89" length="3.16" shape="914.75,530.69 913.71,530.68 911.70,530.02"/>
    </edge>
    <edge id=":1264747713_10" function="internal">
        <lane id=":1264747713_10_0" index="0" speed="13.89" length="2.41" shape="915.07,529.87 914.40,529.24 913.96,527.82"/>
    </edge>
    <edge id=":1264747713_3" function="internal">
        <lane id=":1264747713_3_0" index="0" disallow="tram rail_urban rail rail_electric ship" speed="13.89" length="1.68" shape="912.40,526.72 911.19,525.54"/>
    </edge>
    <edge id=":1264747713_4" function="internal">
        <lane id=":1264747713_4_0" index="0" disallow="tram rail_urban rail rail_electric ship" speed="13.89" length="9.19" shape="912.40,526.72 914.36,527.99 915.51,529.69 915.85,531.84 915.38,534.42"/>
    </edge>
    <edge id=":1264747713_5" function="internal">
        <lane id=":1264747713_5_0" index="0" disallow="tram rail_urban rail rail_electric ship" speed="13.89" length="4.93" shape="912.40,526.72 913.46,527.80 913.70,528.72 913.11,529.45 911.70,530.02"/>
    </edge>
    <edge id=":1264747713_6" function="internal">
        <lane id=":1264747713_6_0" index="0" disallow="tram rail_urban rail rail_electric ship" speed="13.89" length="3.77" shape="912.23,533.43 912.52,532.17 912.53,531.18 912.26,530.47 911.70,530.02"/>
    </edge>
    <edge id=":1264747713_7" function="internal">
        <lane id=":1264747713_7_0" index="0" disallow="tram rail_urban rail rail_electric ship" speed="13.89" length="5.87" shape="912.23,533.43 913.96,527.82"/>
    </edge>
    <edge id=":1264747713_8" function="internal">
        <lane id=":1264747713_8_0" index="0" disallow="tram rail_urban rail rail_electric ship" speed="13.89" length="2.85" shape="912.23,533.43 913.39,532.50 914.30,532.35 914.61,532.65"/>
    </edge>
    <edge id=":1264747713_11" function="internal">
        <lane id=":1264747713_11_0" index="0" speed="13.89" length="1.97" shape="914.61,532.65 914.96,532.99 915.38,534.42"/>
    </edge>
    <edge id=":1328533357_0" function="internal">
        <lane id=":1328533357_0_0" index="0" disallow="tram rail_urban rail rail_electric ship" speed="13.89" length="5.02" shape="1005.23,633.95 1003.92,633.56 1002.79,633.69 1001.85,634.33 1001.09,635.48"/>
    </edge>
    <edge id=":1328533357_1" function="internal">
        <lane id=":1328533357_1_0" index="0" disallow="tram rail_urban rail rail_electric ship" speed="13.89" length="9.49" shape="1005.23,633.95 996.63,629.94"/>
    </edge>
    <edge id=":1328533357_2" function="internal">
        <lane id=":1328533357_2_0" index="0" disallow="tram rail_urban rail rail_electric ship" speed="13.89" length="2.41" shape="1005.23,633.95 1004.45,632.69 1004.42,631.76"/>
    </edge>
    <edge id=":1328533357_9" function="internal">
        <lane id=":1328533357_9_0" index="0" speed="13.89" length="2.41" shape="1004.42,631.76 1005.14,631.19 1006.61,630.96"/>
    </edge>
    <edge id=":1328533357_3" function="internal">
        <lane id=":1328533357_3_0" index="0" disallow="tram rail_urban rail rail_electric ship" speed="13.89" length="9.47" shape="998.03,626.96 1006.61,630.96"/>
    </edge>
    <edge id=":1328533357_4" function="internal">
        <lane id=":1328533357_4_0" index="0" disallow="tram rail_urban rail rail_electric ship" speed="13.89" length="5.17" shape="998.03,626.96 1000.40,628.51 1001.70,630.45"/>
    </edge>
    <edge id=":1328533357_5" function="internal">
        <lane id=":1328533357_5_0" index="0" disallow="tram rail_urban rail rail_electric ship" speed="13.89" length="2.41" shape="998.03,626.96 998.80,628.23 998.82,629.15"/>
    </edge>
    <edge id=":1328533357_10" function="internal">
        <lane id=":1328533357_10_0" index="0" speed="13.89" length="5.17" shape="1001.70,630.45 1001.93,632.77 1001.09,635.48"/>
    </edge>
    <edge id=":1328533357_11" function="internal">
        <lane id=":1328533357_11_0" index="0" speed="13.89" length="2.41" shape="998.82,629.15 998.10,629.72 996.63,629.94"/>
    </edge>
    <edge id=":1328533357_6" function="internal">
        <lane id=":1328533357_6_0" index="0" disallow="tram rail_urban rail rail_electric ship" speed="13.89" length="5.00" shape="998.11,634.07 998.51,632.76 998.40,631.63 997.77,630.69 996.63,629.94"/>
    </edge>
    <edge id=":1328533357_7" function="internal">
        <lane id=":1328533357_7_0" index="0" disallow="tram rail_urban rail rail_electric ship" speed="13.89" length="10.31" shape="998.11,634.07 999.66,631.71 1001.60,630.40 1003.92,630.15 1006.61,630.96"/>
    </edge>
    <edge id=":1328533357_8" function="internal">
        <lane id=":1328533357_8_0" index="0" disallow="tram rail_urban rail rail_electric ship" speed="13.89" length="4.82" shape="998.11,634.07 999.38,633.30 1000.30,633.28 1000.87,634.01 1001.09,635.48"/>
    </edge>
    <edge id=":1328533358_0" function="internal">
        <lane id=":1328533358_0_0" index="0" disallow="tram rail_urban rail rail_electric ship" speed="13.89" length="4.82" shape="966.72,709.31 965.45,710.09 964.53,710.12 963.95,709.40 963.72,707.93"/>
    </edge>
    <edge id=":1331959459_0" function="internal">
        <lane id=":1331959459_0_0" index="0" disallow="tram rail_urban rail rail_electric ship" speed="13.89" length="9.50" shape="2166.82,1261.64 2166.33,1252.15"/>
    </edge>
    <edge id=":1331959459_1" function="internal">
        <lane id=":1331959459_1_0" index="0" disallow="tram rail_urban rail rail_electric ship" speed="13.89" length="5.29" shape="2166.82,1261.64 2167.08,1258.81 2168.19,1256.74 2168.27,1256.69"/>
    </edge>
    <edge id=":1331959459_2" function="internal">
        <lane id=":1331959459_2_0" index="0" disallow="tram rail_urban rail rail_electric ship" speed="13.89" length="2.41" shape="2166.82,1261.64 2167.58,1260.36 2168.39,1259.91"/>
    </edge>
    <edge id=":1331959459_9" function="internal">
        <lane id=":1331959459_9_0" index="0" speed="13.89" length="5.09" shape="2168.27,1256.69 2170.14,1255.45 2172.94,1254.93"/>
    </edge>
    <edge id=":1331959459_10" function="internal">
        <lane id=":1331959459_10_0" index="0" speed="13.89" length="2.41" shape="2168.39,1259.91 2169.23,1260.28 2170.12,1261.47"/>
    </edge>
    <edge id=":1331959459_3" function="internal">
        <lane id=":1331959459_3_0" index="0" disallow="tram rail_urban rail rail_electric ship" speed="13.89" length="5.01" shape="2173.07,1258.23 2171.72,1258.48 2170.78,1259.10 2170.24,1260.10 2170.12,1261.47"/>
    </edge>
    <edge id=":1331959459_4" function="internal">
        <lane id=":1331959459_4_0" index="0" disallow="tram rail_urban rail rail_electric ship" speed="13.89" length="10.32" shape="2173.07,1258.23 2170.25,1257.95 2168.18,1256.84 2166.88,1254.91 2166.33,1252.15"/>
    </edge>
    <edge id=":1331959459_5" function="internal">
        <lane id=":1331959459_5_0" index="0" disallow="tram rail_urban rail rail_electric ship" speed="13.89" length="4.82" shape="2173.07,1258.23 2171.80,1257.46 2171.36,1256.65 2171.73,1255.81 2172.94,1254.93"/>
    </edge>
    <edge id=":1331959459_6" function="internal">
        <lane id=":1331959459_6_0" index="0" disallow="tram rail_urban rail rail_electric ship" speed="13.89" length="5.04" shape="2169.63,1251.98 2169.89,1253.32 2170.54,1254.26 2171.55,1254.80 2172.94,1254.93"/>
    </edge>
    <edge id=":1331959459_7" function="internal">
        <lane id=":1331959459_7_0" index="0" disallow="tram rail_urban rail rail_electric ship" speed="13.89" length="9.50" shape="2169.63,1251.98 2170.12,1261.47"/>
    </edge>
    <edge id=":1331959459_8" function="internal">
        <lane id=":1331959459_8_0" index="0" disallow="tram rail_urban rail rail_electric ship" speed="13.89" length="2.41" shape="2169.63,1251.98 2168.87,1253.26 2168.07,1253.72"/>
    </edge>
    <edge id=":1331959459_11" function="internal">
        <lane id=":1331959459_11_0" index="0" speed="13.89" length="2.41" shape="2168.07,1253.72 2167.22,1253.35 2166.33,1252.15"/>
    </edge>
    <edge id=":1331959462_0" function="internal">
        <lane id=":1331959462_0_0" index="0" disallow="tram rail_urban rail rail_electric ship" speed="13.89" length="4.82" shape="2528.02,1250.26 2529.29,1251.03 2529.73,1251.84 2529.35,1252.68 2528.15,1253.56"/>
    </edge>
    <edge id=":1336377269_0" function="internal">
        <lane id=":1336377269_0_0" index="0" disallow="tram rail_urban rail rail_electric ship" speed="5.56" length="4.82" shape="440.21,479.22 439.26,480.36 438.39,480.68 437.62,480.18 436.93,478.86"/>
    </edge>
    <edge id=":1341039838_0" function="internal">
        <lane id=":1341039838_0_0" index="0" disallow="tram rail_urban rail rail_electric ship" speed="13.89" length="5.08" shape="2422.76,530.41 2421.34,530.43 2420.27,530.88 2419.54,531.75 2419.15,533.06"/>
    </edge>
    <edge id=":1341039838_1" function="internal">
        <lane id=":1341039838_1_0" index="0" disallow="tram rail_urban rail rail_electric ship" speed="13.89" length="10.42" shape="2422.76,530.41 2419.99,529.66 2418.15,528.21 2417.23,526.05 2417.23,523.19"/>
    </edge>
    <edge id=":1341039838_2" function="internal">
        <lane id=":1341039838_2_0" index="0" disallow="tram rail_urban rail rail_electric ship" speed="13.89" length="4.82" shape="2422.76,530.41 2421.63,529.44 2421.32,528.57 2421.83,527.80 2423.16,527.13"/>
    </edge>
    <edge id=":1341039838_3" function="internal">
        <lane id=":1341039838_3_0" index="0" disallow="tram rail_urban rail rail_electric ship" speed="13.89" length="5.02" shape="2420.50,523.65 2420.50,525.03 2420.94,526.07 2421.83,526.77 2423.16,527.13"/>
    </edge>
    <edge id=":1341039838_4" function="internal">
        <lane id=":1341039838_4_0" index="0" disallow="tram rail_urban rail rail_electric ship" speed="13.89" length="9.50" shape="2420.50,523.65 2419.15,533.06"/>
    </edge>
    <edge id=":1341039838_5" function="internal">
        <lane id=":1341039838_5_0" index="0" disallow="tram rail_urban rail rail_electric ship" speed="13.89" length="2.41" shape="2420.50,523.65 2419.50,524.76 2418.63,525.05"/>
    </edge>
    <edge id=":1341039838_9" function="internal">
        <lane id=":1341039838_9_0" index="0" speed="13.89" length="2.41" shape="2418.63,525.05 2417.87,524.53 2417.23,523.19"/>
    </edge>
    <edge id=":1341039838_6" function="internal">
        <lane id=":1341039838_6_0" index="0" disallow="tram rail_urban rail rail_electric ship" speed="13.89" length="9.50" shape="2415.89,532.59 2417.23,523.19"/>
    </edge>
    <edge id=":1341039838_7" function="internal">
        <lane id=":1341039838_7_0" index="0" disallow="tram rail_urban rail rail_electric ship" speed="13.89" length="5.24" shape="2415.89,532.59 2416.68,529.91 2418.15,528.10 2418.25,528.06"/>
    </edge>
    <edge id=":1341039838_8" function="internal">
        <lane id=":1341039838_8_0" index="0" disallow="tram rail_urban rail rail_electric ship" speed="13.89" length="2.41" shape="2415.89,532.59 2416.88,531.48 2417.75,531.19"/>
    </edge>
    <edge id=":1341039838_10" function="internal">
        <lane id=":1341039838_10_0" index="0" speed="13.89" length="5.09" shape="2418.25,528.06 2420.31,527.18 2423.16,527.13"/>
    </edge>
    <edge id=":1341039838_11" function="internal">
        <lane id=":1341039838_11_0" index="0" speed="13.89" length="2.41" shape="2417.75,531.19 2418.51,531.72 2419.15,533.06"/>
    </edge>
    <edge id=":1341039839_0" function="internal">
        <lane id=":1341039839_0_0" index="0" disallow="tram rail_urban rail rail_electric ship" speed="13.89" length="9.50" shape="2548.20,539.56 2546.84,548.96"/>
    </edge>
    <edge id=":1341039839_1" function="internal">
        <lane id=":1341039839_1_0" index="0" disallow="tram rail_urban rail rail_electric ship" speed="13.89" length="5.23" shape="2548.20,539.56 2547.41,542.24 2545.93,544.04 2545.83,544.08"/>
    </edge>
    <edge id=":1341039839_2" function="internal">
        <lane id=":1341039839_2_0" index="0" disallow="tram rail_urban rail rail_electric ship" speed="13.89" length="2.41" shape="2548.20,539.56 2547.21,540.67 2546.33,540.96"/>
    </edge>
    <edge id=":1341039839_9" function="internal">
        <lane id=":1341039839_9_0" index="0" speed="13.89" length="5.10" shape="2545.83,544.08 2543.76,544.96 2540.91,545.01"/>
    </edge>
    <edge id=":1341039839_10" function="internal">
        <lane id=":1341039839_10_0" index="0" speed="13.89" length="2.41" shape="2546.33,540.96 2545.58,540.43 2544.94,539.09"/>
    </edge>
    <edge id=":1341039839_3" function="internal">
        <lane id=":1341039839_3_0" index="0" disallow="tram rail_urban rail rail_electric ship" speed="13.89" length="5.08" shape="2541.32,541.73 2542.74,541.71 2543.81,541.27 2544.54,540.39 2544.94,539.09"/>
    </edge>
    <edge id=":1341039839_4" function="internal">
        <lane id=":1341039839_4_0" index="0" disallow="tram rail_urban rail rail_electric ship" speed="13.89" length="10.43" shape="2541.32,541.73 2544.08,542.48 2545.93,543.94 2546.84,546.10 2546.84,548.96"/>
    </edge>
    <edge id=":1341039839_5" function="internal">
        <lane id=":1341039839_5_0" index="0" disallow="tram rail_urban rail rail_electric ship" speed="13.89" length="4.82" shape="2541.32,541.73 2542.45,542.70 2542.75,543.57 2542.24,544.34 2540.91,545.01"/>
    </edge>
    <edge id=":1341039839_6" function="internal">
        <lane id=":1341039839_6_0" index="0" disallow="tram rail_urban rail rail_electric ship" speed="13.89" length="5.02" shape="2543.58,548.49 2543.58,547.11 2543.13,546.07 2542.25,545.37 2540.91,545.01"/>
    </edge>
    <edge id=":1341039839_7" function="internal">
        <lane id=":1341039839_7_0" index="0" disallow="tram rail_urban rail rail_electric ship" speed="13.89" length="9.50" shape="2543.58,548.49 2544.94,539.09"/>
    </edge>
    <edge id=":1341039839_8" function="internal">
        <lane id=":1341039839_8_0" index="0" disallow="tram rail_urban rail rail_electric ship" speed="13.89" length="2.41" shape="2543.58,548.49 2544.57,547.39 2545.44,547.09"/>
    </edge>
    <edge id=":1341039839_11" function="internal">
        <lane id=":1341039839_11_0" index="0" speed="13.89" length="2.41" shape="2545.44,547.09 2546.20,547.62 2546.84,548.96"/>
    </edge>
    <edge id=":1385711931_0" function="internal">
        <lane id=":1385711931_0_0" index="0" disallow="tram rail_urban rail rail_electric ship" speed="2.78" length="6.30" shape="1610.66,599.28 1609.10,599.63 1607.79,600.35 1606.73,601.44 1605.91,602.91"/>
    </edge>
    <edge id=":1385711931_1" function="internal">
        <lane id=":1385711931_1_0" index="0" disallow="tram rail_urban rail rail_electric ship" speed="2.78" length="9.72" shape="1610.66,599.28 1607.81,599.49 1605.82,599.35 1603.92,598.75 1601.32,597.54"/>
    </edge>
    <edge id=":1385711931_2" function="internal">
        <lane id=":1385711931_2_0" index="0" disallow="tram rail_urban rail rail_electric ship" speed="2.78" length="4.83" shape="1610.66,599.28 1609.30,598.67 1608.75,597.92 1609.02,597.04 1610.11,596.02"/>
    </edge>
    <edge id=":1385711931_3" function="internal">
        <lane id=":1385711931_3_0" index="0" disallow="tram rail_urban rail rail_electric ship" speed="2.78" length="7.89" shape="1602.75,594.57 1605.64,595.83 1607.83,596.50 1609.32,596.56 1610.11,596.02"/>
    </edge>
    <edge id=":1385711931_4" function="internal">
        <lane id=":1385711931_4_0" index="0" disallow="tram rail_urban rail rail_electric ship" speed="2.78" length="10.06" shape="1602.75,594.57 1605.02,596.09 1606.31,597.99 1606.60,600.27 1605.91,602.91"/>
    </edge>
    <edge id=":1385711931_5" function="internal">
        <lane id=":1385711931_5_0" index="0" disallow="tram rail_urban rail rail_electric ship" speed="2.78" length="4.82" shape="1602.75,594.57 1603.51,595.85 1603.52,596.77 1602.79,597.34 1601.32,597.54"/>
    </edge>
    <edge id=":1385711931_6" function="internal">
        <lane id=":1385711931_6_0" index="0" disallow="tram rail_urban rail rail_electric ship" speed="2.78" length="4.94" shape="1602.86,601.64 1603.20,600.34 1603.06,599.22 1602.43,598.29 1601.32,597.54"/>
    </edge>
    <edge id=":1385711931_7" function="internal">
        <lane id=":1385711931_7_0" index="0" disallow="tram rail_urban rail rail_electric ship" speed="2.78" length="9.47" shape="1602.86,601.64 1604.45,599.55 1606.36,598.77 1608.33,598.02 1610.11,596.02"/>
    </edge>
    <edge id=":1385711931_8" function="internal">
        <lane id=":1385711931_8_0" index="0" disallow="tram rail_urban rail rail_electric ship" speed="2.78" length="4.82" shape="1602.86,601.64 1604.10,600.81 1605.02,600.75 1605.62,601.45 1605.91,602.91"/>
    </edge>
    <edge id=":1385711937_0" function="internal">
        <lane id=":1385711937_0_0" index="0" allow="delivery bicycle pedestrian" speed="4.17" length="4.59" shape="1529.31,559.47 1528.46,558.74 1527.49,558.43 1526.40,558.56 1525.17,559.13"/>
    </edge>
    <edge id=":1385711937_1" function="internal">