<?xml version="1.0" encoding="UTF-8"?>


<!-- generated on 12/05/16 14:26:27 by SUMO duarouter Version 0.28.0
<?xml version="1.0" encoding="UTF-8"?>

<configuration xmlns:xsi="http://www.w3.org/2001/XMLSchema-instance" xsi:noNamespaceSchemaLocation="http://sumo.dlr.de/xsd/duarouterConfiguration.xsd">

    <input>
        <net-file value="vm.net.xml"/>
        <trip-files value="trips.trips.xml"/>
    </input>

    <output>
        <output-file value="vm.rou.xml"/>
    </output>

    <processing>
        <ignore-errors value="true"/>
    </processing>

    <time>
        <begin value="0"/>
        <end value="100.0"/>
    </time>

    <report>
        <no-warnings value="true"/>
        <no-step-log value="true"/>
    </report>

</configuration>
-->

<!--

1 IN 196319589
1 OUT 196319575#1
2  -196319631#4
3  367502764#0
4  291628004#3

-->    

    <vehicles>
        <flow id="f11" begin="0" end="3600" number="0" from="196319589" to="196319575#1" via="--23584"/>
        <flow id="f12" begin="0" end="3600" number="233" from="196319589" to="-196319631#4" via="--23584"/>
        <flow id="f13" begin="0" end="3600" number="266" from="196319589" to="367502764#0" via="--23584"/>
        <flow id="f14" begin="0" end="3600" number="185" from="196319589" to="291628004#3" via="--23584"/>
        
        <flow id="f21" begin="0" end="3600" number="176" from="-196319631#4" to="196319575#1" via="-196319631#1"/>
        <flow id="f22" begin="0" end="3600" number="0" from="-196319631#4" to="-196319631#4" via="-196319631#1"/>
        <flow id="f23" begin="0" end="3600" number="160" from="-196319631#4" to="367502764#0" via="-196319631#1"/>
        <flow id="f24" begin="0" end="3600" number="152" from="-196319631#4" to="291628004#3" via="-196319631#1"/>

        <flow id="f31" begin="0" end="3600" number="223" from="367502764#0" to="196319575#1" via="-23596"/>
        <flow id="f32" begin="0" end="3600" number="136" from="367502764#0" to="-196319631#4" via="-23596"/>
        <flow id="f33" begin="0" end="3600" number="0" from="367502764#0" to="367502764#0" via="-23596"/>
        <flow id="f34" begin="0" end="3600" number="48" from="367502764#0" to="291628004#3" via="-23596"/>

        <flow id="f41" begin="0" end="3600" number="136" from="291628004#3" to="196319575#1" via="196319631#0"/>
        <flow id="f42" begin="0" end="3600" number="188" from="291628004#3" to="-196319631#4" via="196319631#0"/>
        <flow id="f43" begin="0" end="3600" number="48" from="291628004#3" to="367502764#0" via="196319631#0"/>
        <flow id="f44" begin="0" end="3600" number="0" from="291628004#3" to="291628004#3" via="196319631#0"/>
    </vehicles>


