<?xml version="1.0"?>
<!-- generated on 2016-12-05 14:26:27.285000 by $Id: randomTrips.py 21557 2016-09-28 10:43:52Z luecken $
  options: -n vm.net.xml -r vm.rou.xml -e 100 -l
-->
<trips>
    <trip id="0" depart="0.00" from="31018630#1" to="62323373" />
    <trip id="1" depart="1.00" from="-196319581#0" to="374832675" />
    <trip id="2" depart="2.00" from="303814575" to="171255041#1" />
    <trip id="3" depart="3.00" from="289823632#0" to="196319631#2" />
    <trip id="4" depart="4.00" from="60642302#1" to="196319620" />
    <trip id="5" depart="5.00" from="36841519" to="-291628004#0" />
    <trip id="6" depart="6.00" from="-296932509" to="171212533#11" />
    <trip id="7" depart="7.00" from="-285152369" to="-44117515" />
    <trip id="8" depart="8.00" from="352139754" to="-291628004#0" />
    <trip id="9" depart="9.00" from="196319589" to="-31018629" />
    <trip id="10" depart="10.00" from="-36841516#8" to="171212532" />
    <trip id="11" depart="11.00" from="171212555#9" to="171212562#6" />
    <trip id="12" depart="12.00" from="-289823664#1" to="-31536543#0" />
    <trip id="13" depart="13.00" from="36841540" to="-110890269" />
    <trip id="14" depart="14.00" from="-437450631" to="289823644" />
    <trip id="15" depart="15.00" from="287233519#5" to="289823667#0" />
    <trip id="16" depart="16.00" from="196319549#0" to="287233519#6" />
    <trip id="17" depart="17.00" from="-353929406#0" to="171212516" />
    <trip id="18" depart="18.00" from="36841539#1" to="374832694" />
    <trip id="19" depart="19.00" from="-36841541#0" to="291628000#4" />
    <trip id="20" depart="20.00" from="-436208746#2" to="296932509" />
    <trip id="21" depart="21.00" from="-330831454" to="36841519" />
    <trip id="22" depart="22.00" from="36841522" to="56937952" />
    <trip id="23" depart="23.00" from="-36841532#0" to="-251990942#0" />
    <trip id="24" depart="24.00" from="196319581#0" to="374832731#1" />
    <trip id="25" depart="25.00" from="352139752#1" to="171212658#3" />
    <trip id="26" depart="26.00" from="-291628004#4" to="-118415016#0" />
    <trip id="27" depart="27.00" from="171212619" to="287233519#7" />
    <trip id="28" depart="28.00" from="289823671" to="196319581#1" />
    <trip id="29" depart="29.00" from="-36841576" to="322861277#0" />
    <trip id="30" depart="30.00" from="-36841538#1" to="171212531#1" />
    <trip id="31" depart="31.00" from="-196319632#5" to="-281200263#1" />
    <trip id="32" depart="32.00" from="110890195#1" to="374832643#4" />
    <trip id="33" depart="33.00" from="171212555#15" to="-110890108" />
    <trip id="34" depart="34.00" from="171212553#2" to="31018630#3" />
    <trip id="35" depart="35.00" from="289823630#1" to="-300618575" />
    <trip id="36" depart="36.00" from="353929406#0" to="171212553#2" />
    <trip id="37" depart="37.00" from="62323384#0" to="196319631#3" />
    <trip id="38" depart="38.00" from="-36841538#1" to="36841530" />
    <trip id="39" depart="39.00" from="-353929406#0" to="291628004#0" />
    <trip id="40" depart="40.00" from="171212525#0" to="352139748#1" />
    <trip id="41" depart="41.00" from="110890108" to="171212523" />
    <trip id="42" depart="42.00" from="-31018629" to="36841529#1" />
    <trip id="43" depart="43.00" from="-353929406#0" to="171212562#0" />
    <trip id="44" depart="44.00" from="322679933#2" to="60642294#3" />
    <trip id="45" depart="45.00" from="171212626" to="251990941#0" />
    <trip id="46" depart="46.00" from="36841597" to="-62323392" />
    <trip id="47" depart="47.00" from="-289823633#4" to="171212521#0" />
    <trip id="48" depart="48.00" from="-437450631" to="171212516" />
    <trip id="49" depart="49.00" from="171212524#2" to="196319631#4" />
    <trip id="50" depart="50.00" from="60642295#2" to="171212532" />
    <trip id="51" depart="51.00" from="444460320" to="446153598#0" />
    <trip id="52" depart="52.00" from="-36841576" to="322679933#2" />
    <trip id="53" depart="53.00" from="-430996080" to="-291628004#3" />
    <trip id="54" depart="54.00" from="171212562#1" to="-353929406#0" />
    <trip id="55" depart="55.00" from="-36841522" to="171212660" />
    <trip id="56" depart="56.00" from="289823656#0" to="171212522" />
    <trip id="57" depart="57.00" from="62323386" to="-36841507#1" />
    <trip id="58" depart="58.00" from="289823662#1" to="404769209#0" />
    <trip id="59" depart="59.00" from="-243422549#1" to="171212680" />
    <trip id="60" depart="60.00" from="353929353#0" to="289823669#1" />
    <trip id="61" depart="61.00" from="289823674#0" to="289823664#0" />
    <trip id="62" depart="62.00" from="171212707" to="293999294#4" />
    <trip id="63" depart="63.00" from="-160520405#1" to="285152369" />
    <trip id="64" depart="64.00" from="171212680" to="-289823672#1" />
    <trip id="65" depart="65.00" from="171212572" to="-44117515" />
    <trip id="66" depart="66.00" from="436208058#1" to="36841576" />
    <trip id="67" depart="67.00" from="-56937952" to="322679933#2" />
    <trip id="68" depart="68.00" from="-124495000#1" to="-196319556#0" />
    <trip id="69" depart="69.00" from="110890269" to="-31018630#3" />
    <trip id="70" depart="70.00" from="-430996079#0" to="196319602" />
    <trip id="71" depart="71.00" from="374832643#4" to="243422521#3" />
    <trip id="72" depart="72.00" from="-56937761#9" to="446153601" />
    <trip id="73" depart="73.00" from="-436208746#3" to="62323391#1" />
    <trip id="74" depart="74.00" from="353929406#0" to="-289823629#3" />
    <trip id="75" depart="75.00" from="446153600" to="171212666#1" />
    <trip id="76" depart="76.00" from="171212525#0" to="196319632#5" />
    <trip id="77" depart="77.00" from="-291628000#10" to="171212616#0" />
    <trip id="78" depart="78.00" from="31018630#0" to="196319572#3" />
    <trip id="79" depart="79.00" from="322679933#0" to="333576619#0" />
    <trip id="80" depart="80.00" from="171212524#2" to="289823671" />
    <trip id="81" depart="81.00" from="-436208058#6" to="60642294#0" />
    <trip id="82" depart="82.00" from="291628004#4" to="171212533#1" />
    <trip id="83" depart="83.00" from="291628000#6" to="254768865#2" />
    <trip id="84" depart="84.00" from="171212554#3" to="291628000#3" />
    <trip id="85" depart="85.00" from="36841537" to="352139748#3" />
    <trip id="86" depart="86.00" from="374832667" to="171212635#1" />
    <trip id="87" depart="87.00" from="194914878" to="171212526#1" />
    <trip id="88" depart="88.00" from="62323386" to="171212661#1" />
    <trip id="89" depart="89.00" from="430996079#0" to="171212660" />
    <trip id="90" depart="90.00" from="289823634#1" to="142418956#0" />
    <trip id="91" depart="91.00" from="291628001" to="-353929406#0" />
    <trip id="92" depart="92.00" from="446153601" to="28138414#1" />
    <trip id="93" depart="93.00" from="171212555#12" to="-436208746#1" />
    <trip id="94" depart="94.00" from="171212671#0" to="353929406#0" />
    <trip id="95" depart="95.00" from="196319634" to="-124494984" />
    <trip id="96" depart="96.00" from="-62323390" to="-196319631#3" />
    <trip id="97" depart="97.00" from="36841506#0" to="171212533#7" />
    <trip id="98" depart="98.00" from="-124491537" to="-124495000#1" />
    <trip id="99" depart="99.00" from="171212523" to="31536542#3" />
</trips>
