<?xml version="1.0" encoding="UTF-8"?>

<!-- generated on 12/05/16 14:26:27 by SUMO duarouter Version 0.28.0
<?xml version="1.0" encoding="UTF-8"?>

<configuration xmlns:xsi="http://www.w3.org/2001/XMLSchema-instance" xsi:noNamespaceSchemaLocation="http://sumo.dlr.de/xsd/duarouterConfiguration.xsd">

    <input>
        <net-file value="vm.net.xml"/>
        <trip-files value="trips.trips.xml"/>
    </input>

    <output>
        <output-file value="vm.rou.xml"/>
    </output>

    <processing>
        <ignore-errors value="true"/>
    </processing>

    <time>
        <begin value="0"/>
        <end value="100.0"/>
    </time>

    <report>
        <no-warnings value="true"/>
        <no-step-log value="true"/>
    </report>

</configuration>
-->

    <vehicles>
       
        <flow id="f" begin="0" end="100" number="23" from="446160673" to="367502762#3"/>
        <flow id="f2" begin="0" end="100" number="23" from="31018630#1" to="36841516#2"/>
    </vehicles>


